<?xml version="1.0" ?>
<routes>
  <vType id="car" vClass="passenger" color="1,0,0" length="5" minGap="2.5" maxSpeed="13.9"/>
  <route id="route_市高往東  承德中山" edges="3196998943 655375247"/>
  <vehicle id="vehicle_市高往東  承德中山" type="car" route="route_市高往東  承德中山" depart="0" departLane="best" departPos="0"/>
  <route id="route_新生高    八德路-長安東路" edges="655375238 655375275"/>
  <vehicle id="vehicle_新生高    八德路-長安東路" type="car" route="route_新生高    八德路-長安東路" depart="0" departLane="best" departPos="0"/>
  <route id="route_建國南路  忠孝東路-仁愛路" edges="2713733789 619136881"/>
  <vehicle id="vehicle_建國南路  忠孝東路-仁愛路" type="car" route="route_建國南路  忠孝東路-仁愛路" depart="0" departLane="best" departPos="0"/>
  <route id="route_建國南路  仁愛路-忠孝東路" edges="619136881 1512685982"/>
  <vehicle id="vehicle_建國南路  仁愛路-忠孝東路" type="car" route="route_建國南路  仁愛路-忠孝東路" depart="0" departLane="best" departPos="0"/>
  <route id="route_市高往東  新生建國" edges="655375247 622618112"/>
  <vehicle id="vehicle_市高往東  新生建國" type="car" route="route_市高往東  新生建國" depart="0" departLane="best" departPos="0"/>
  <route id="route_市高往西  建國新生" edges="3431431576 655375266"/>
  <vehicle id="vehicle_市高往西  建國新生" type="car" route="route_市高往西  建國新生" depart="0" departLane="best" departPos="0"/>
  <route id="route_建國快往北 忠孝長安" edges="619136881 cluster_623980090_623980094"/>
  <vehicle id="vehicle_建國快往北 忠孝長安" type="car" route="route_建國快往北 忠孝長安" depart="0" departLane="best" departPos="0"/>
  <route id="route_忠孝東　金山南(往南)" edges="655375275 cluster_9383263990_9383263991_9383263992_9383263993"/>
  <vehicle id="vehicle_忠孝東　金山南(往南)" type="car" route="route_忠孝東　金山南(往南)" depart="0" departLane="best" departPos="0"/>
  <route id="route_八德路    建國北路-新生北路" edges="cluster_3431431575_4777363357_655375231_6982059025 cluster_2528018119_655375236"/>
  <vehicle id="vehicle_八德路    建國北路-新生北路" type="car" route="route_八德路    建國北路-新生北路" depart="0" departLane="best" departPos="0"/>
  <route id="route_八德路    新生南路-建國北路" edges="cluster_2528018119_655375236 655375233"/>
  <vehicle id="vehicle_八德路    新生南路-建國北路" type="car" route="route_八德路    新生南路-建國北路" depart="0" departLane="best" departPos="0"/>
  <route id="route_市高往東  敦化延吉" edges="622618112 6252193082"/>
  <vehicle id="vehicle_市高往東  敦化延吉" type="car" route="route_市高往東  敦化延吉" depart="0" departLane="best" departPos="0"/>
  <route id="route_建國快往南 忠孝仁愛" edges="3208478121 1512685982"/>
  <vehicle id="vehicle_建國快往南 忠孝仁愛" type="car" route="route_建國快往南 忠孝仁愛" depart="0" departLane="best" departPos="0"/>
  <route id="route_市高往西  林森中山" edges="655375266 6252193615"/>
  <vehicle id="vehicle_市高往西  林森中山" type="car" route="route_市高往西  林森中山" depart="0" departLane="best" departPos="0"/>
  <route id="route_市高往西  延吉復興" edges="10094329040 3431431576"/>
  <vehicle id="vehicle_市高往西  延吉復興" type="car" route="route_市高往西  延吉復興" depart="0" departLane="best" departPos="0"/>
  <route id="route_市高往東  復興敦化" edges="622618112 6252193082"/>
  <vehicle id="vehicle_市高往東  復興敦化" type="car" route="route_市高往東  復興敦化" depart="0" departLane="best" departPos="0"/>
  <route id="route_建國快往北 仁愛忠孝" edges="1512685982 619136881"/>
  <vehicle id="vehicle_建國快往北 仁愛忠孝" type="car" route="route_建國快往北 仁愛忠孝" depart="0" departLane="best" departPos="0"/>
  <route id="route_市高往東  建國復興" edges="655375247 622618112"/>
  <vehicle id="vehicle_市高往東  建國復興" type="car" route="route_市高往東  建國復興" depart="0" departLane="best" departPos="0"/>
  <route id="route_市高往東  中山林森" edges="3196998943 655375247"/>
  <vehicle id="vehicle_市高往東  中山林森" type="car" route="route_市高往東  中山林森" depart="0" departLane="best" departPos="0"/>
  <route id="route_建國快往南 忠孝東路下匝道" edges="3208478121 cluster_619136929_619136942"/>
  <vehicle id="vehicle_建國快往南 忠孝東路下匝道" type="car" route="route_建國快往南 忠孝東路下匝道" depart="0" departLane="best" departPos="0"/>
  <route id="route_麥二正氣" edges="10094329040 622618112"/>
  <vehicle id="vehicle_麥二正氣" type="car" route="route_麥二正氣" depart="0" departLane="best" departPos="0"/>
  <route id="route_建國快往南 長安忠孝" edges="cluster_623980147_623980152 3208478121"/>
  <vehicle id="vehicle_建國快往南 長安忠孝" type="car" route="route_建國快往南 長安忠孝" depart="0" departLane="best" departPos="0"/>
  <route id="route_新生高    長安東路-八德路" edges="3196998953 655375239"/>
  <vehicle id="vehicle_新生高    長安東路-八德路" type="car" route="route_新生高    長安東路-八德路" depart="0" departLane="best" departPos="0"/>
  <route id="route_忠孝東路  復興北路-建國南路" edges="cluster_5372642442_631668976_631668981_631669076 619136881"/>
  <vehicle id="vehicle_忠孝東路  復興北路-建國南路" type="car" route="route_忠孝東路  復興北路-建國南路" depart="0" departLane="best" departPos="0"/>
  <route id="route_建國快往南 長春長安" edges="2713733789 cluster_623980147_623980152"/>
  <vehicle id="vehicle_建國快往南 長春長安" type="car" route="route_建國快往南 長春長安" depart="0" departLane="best" departPos="0"/>
  <route id="route_市民大道  金山北路-建國北路" edges="10094329040 655375336"/>
  <vehicle id="vehicle_市民大道  金山北路-建國北路" type="car" route="route_市民大道  金山北路-建國北路" depart="0" departLane="best" departPos="0"/>
  <route id="route_濟南路　新生南(往南)" edges="cluster_5372642442_631668976_631668981_631669076 631668923"/>
  <vehicle id="vehicle_濟南路　新生南(往南)" type="car" route="route_濟南路　新生南(往南)" depart="0" departLane="best" departPos="0"/>
  <route id="route_市民大道  建國北路-金山北路" edges="622618144 655375232"/>
  <vehicle id="vehicle_市民大道  建國北路-金山北路" type="car" route="route_市民大道  建國北路-金山北路" depart="0" departLane="best" departPos="0"/>
  <route id="route_市高往西  復興建國" edges="3431431576 655375266"/>
  <vehicle id="vehicle_市高往西  復興建國" type="car" route="route_市高往西  復興建國" depart="0" departLane="best" departPos="0"/>
  <route id="route_新生高   濟南-八德路" edges="2760755470 655375238"/>
  <vehicle id="vehicle_新生高   濟南-八德路" type="car" route="route_新生高   濟南-八德路" depart="0" departLane="best" departPos="0"/>
  <route id="route_新生高    八德路-濟南路" edges="655375239 2760755470"/>
  <vehicle id="vehicle_新生高    八德路-濟南路" type="car" route="route_新生高    八德路-濟南路" depart="0" departLane="best" departPos="0"/>
  <route id="route_八德路    松江路-忠孝東路" edges="cluster_2528018119_655375236 655375228"/>
  <vehicle id="vehicle_八德路    松江路-忠孝東路" type="car" route="route_八德路    松江路-忠孝東路" depart="0" departLane="best" departPos="0"/>
  <route id="route_市高往東  敦化上方" edges="622618112 6252193082"/>
  <vehicle id="vehicle_市高往東  敦化上方" type="car" route="route_市高往東  敦化上方" depart="0" departLane="best" departPos="0"/>
  <route id="route_建國北路  長安東路-忠孝東路" edges="cluster_623980090_623980094 622618144"/>
  <vehicle id="vehicle_建國北路  長安東路-忠孝東路" type="car" route="route_建國北路  長安東路-忠孝東路" depart="0" departLane="best" departPos="0"/>
  <route id="route_市高往西  新生林森" edges="655375266 6252193615"/>
  <vehicle id="vehicle_市高往西  新生林森" type="car" route="route_市高往西  新生林森" depart="0" departLane="best" departPos="0"/>
  <route id="route_忠孝東路  建國南路-中山北路" edges="cluster_9383263990_9383263991_9383263992_9383263993 cluster_2038168688_655375573"/>
  <vehicle id="vehicle_忠孝東路  建國南路-中山北路" type="car" route="route_忠孝東路  建國南路-中山北路" depart="0" departLane="best" departPos="0"/>
  <route id="route_建國南路  仁愛路-信義路" edges="619136881 1512685982"/>
  <vehicle id="vehicle_建國南路  仁愛路-信義路" type="car" route="route_建國南路  仁愛路-信義路" depart="0" departLane="best" departPos="0"/>
  <route id="route_忠孝東路  杭州北路-中山北路" edges="655375241 1926948264"/>
  <vehicle id="vehicle_忠孝東路  杭州北路-中山北路" type="car" route="route_忠孝東路  杭州北路-中山北路" depart="0" departLane="best" departPos="0"/>
</routes>
