<?xml version="1.0" encoding="UTF-8"?>

<!-- generated on 2026-02-28 12:38:24 by Eclipse SUMO duarouter Version 1.24.0
<duarouterConfiguration xmlns:xsi="http://www.w3.org/2001/XMLSchema-instance" xsi:noNamespaceSchemaLocation="http://sumo.dlr.de/xsd/duarouterConfiguration.xsd">

    <input>
        <net-file value="./data/ntut_network_split.net copy.xml"/>
        <route-files value="./data/final_output.rou.alt.xml"/>
        <junction-taz value="true"/>
    </input>

    <output>
        <output-file value="./data/final_output.rou.xml"/>
        <alternatives-output value="./data/final_output.rou.alt.xml.tmp"/>
    </output>

    <processing>
        <max-alternatives value="3"/>
        <weights.random-factor value="12"/>
    </processing>

    <report>
        <ignore-errors value="true"/>
    </report>

</duarouterConfiguration>
-->

<routes xmlns:xsi="http://www.w3.org/2001/XMLSchema-instance" xsi:noNamespaceSchemaLocation="http://sumo.dlr.de/xsd/routes_file.xsd">
    <vType id="Car0" length="5.00" vClass="passenger" color="green"/>
    <vehicle id="Flow0.0" type="Car0" depart="0.00" fromTaz="cluster_3431431575_4777363357_655375231_6982059025" toTaz="3196998953">
        <routeDistribution last="0">
            <route cost="553.59" probability="0.31869385" edges="484988952#0 -51362430 1068440001 1239087513 593844221#0 1334904386#0 303647015#0"/>
            <route cost="389.15" probability="0.35684769" edges="51362429#0 1068440006#0 -594658757#2 303647015#0"/>
            <route cost="452.92" probability="0.32445846" edges="51362429#0 1068440006#0 1334904386#0 303647015#0"/>
        </routeDistribution>
    </vehicle>
    <vType id="Car1" length="5.00" vClass="passenger" color="green"/>
    <vehicle id="Flow1.0" type="Car1" depart="0.00" fromTaz="631668923" toTaz="622618112">
        <routeDistribution last="2">
            <route cost="321.75" probability="0.31984779" edges="1068234498#0 288135626#0 1068234499#0 182334378#0 1068440004#1 593847702#0"/>
            <route cost="276.03" probability="0.35114706" edges="1068234498#0 288135626#0 1068234499#0 -593847703#3 593847702#0"/>
            <route cost="313.38" probability="0.32900515" edges="1068234498#0 288135626#0 1068234499#0 182334378#0 -E0 593847704#0 49073272#0"/>
        </routeDistribution>
    </vehicle>
    <vType id="Car10" length="5.00" vClass="passenger" color="green"/>
    <vehicle id="Flow10.0" type="Car10" depart="0.00" fromTaz="2760755470" toTaz="655375241">
        <routeDistribution last="0">
            <route cost="149.41" probability="1.00000000" edges="30620492#0 30620492#1 506322840#0"/>
        </routeDistribution>
    </vehicle>
    <vType id="Car11" length="5.00" vClass="passenger" color="green"/>
    <vehicle id="Flow11.0" type="Car11" depart="0.00" fromTaz="cluster619136880_619136881_cluster_4510442270_5296993511_5296993513_619136931_#1more" toTaz="6252193077">
        <routeDistribution last="0">
            <route cost="135.36" probability="1.00000000" edges="196961377#0 196961377#3 593849718#0"/>
        </routeDistribution>
    </vehicle>
    <vType id="Car12" length="5.00" vClass="passenger" color="green"/>
    <vehicle id="Flow12.0" type="Car12" depart="0.00" fromTaz="cluster_2664674491_655375287_655375288" toTaz="2664674489">
        <routeDistribution last="0">
            <route cost="16.50" probability="1.00000000" edges="260881642#0"/>
        </routeDistribution>
    </vehicle>
    <vType id="Car13" length="5.00" vClass="passenger" color="green"/>
    <vehicle id="Flow13.0" type="Car13" depart="0.00" fromTaz="cluster_9383263990_9383263991_9383263992_9383263993" toTaz="3139323041">
        <routeDistribution last="0">
            <route cost="60.18" probability="1.00000000" edges="506322841#1 198001764#0 182336887#2"/>
        </routeDistribution>
    </vehicle>
    <vType id="Car14" length="5.00" vClass="passenger" color="green"/>
    <vehicle id="Flow14.0" type="Car14" depart="0.00" fromTaz="3139322031" toTaz="1926948273">
        <routeDistribution last="0">
            <route cost="9.83" probability="1.00000000" edges="182336887#0"/>
        </routeDistribution>
    </vehicle>
    <vType id="Car15" length="5.00" vClass="passenger" color="green"/>
    <vehicle id="Flow15.0" type="Car15" depart="0.00" fromTaz="cluster_9383263990_9383263991_9383263992_9383263993" toTaz="cluster_9383263990_9383263991_9383263992_9383263993">
        <routeDistribution last="0">
            <route cost="37.90" probability="1.00000000" edges="506322841#1 182336886 30620492#1"/>
        </routeDistribution>
    </vehicle>
    <vType id="Car16" length="5.00" vClass="passenger" color="green"/>
    <vehicle id="Flow16.0" type="Car16" depart="0.00" fromTaz="622618015" toTaz="622618230">
        <routeDistribution last="0">
            <route cost="37.16" probability="1.00000000" edges="49073274 593852346"/>
        </routeDistribution>
    </vehicle>
    <vType id="Car17" length="5.00" vClass="passenger" color="green"/>
    <vehicle id="Flow17.0" type="Car17" depart="0.00" fromTaz="3086736515" toTaz="622618144">
        <routeDistribution last="1">
            <route cost="86.55" probability="0.47432230" edges="-49073264#1 49073274"/>
            <route cost="79.16" probability="0.52567770" edges="593852343 906806086#0"/>
        </routeDistribution>
    </vehicle>
    <vType id="Car18" length="5.00" vClass="passenger" color="green"/>
    <vehicle id="Flow18.0" type="Car18" depart="0.00" fromTaz="cluster619136880_619136881_cluster_4510442270_5296993511_5296993513_619136931_#1more" toTaz="622618165">
        <routeDistribution last="0">
            <route cost="166.02" probability="1.00000000" edges="48794887#0"/>
        </routeDistribution>
    </vehicle>
    <vType id="Car19" length="5.00" vClass="passenger" color="green"/>
    <vehicle id="Flow19.0" type="Car19" depart="0.00" fromTaz="cluster3086736522_655375108_655375247_655375401_#1more" toTaz="cluster655375228_655375240">
        <routeDistribution last="1">
            <route cost="26.97" probability="0.81599033" edges="594658762#0"/>
            <route cost="235.05" probability="0.18400967" edges="594658760#0 49695736#0 300077497#0 300077497#6 E1"/>
        </routeDistribution>
    </vehicle>
    <vType id="Car2" length="5.00" vClass="passenger" color="green"/>
    <vehicle id="Flow2.0" type="Car2" depart="0.00" fromTaz="1926948273" toTaz="1926948228">
        <routeDistribution last="0">
            <route cost="21.09" probability="1.00000000" edges="261898534"/>
        </routeDistribution>
    </vehicle>
    <vType id="Car20" length="5.00" vClass="passenger" color="green"/>
    <vehicle id="Flow20.0" type="Car20" depart="0.00" fromTaz="cluster_5372642442_631668976_631668981_631669076" toTaz="2690921409">
        <routeDistribution last="0">
            <route cost="106.03" probability="1.00000000" edges="506322851#0"/>
        </routeDistribution>
    </vehicle>
    <vType id="Car21" length="5.00" vClass="passenger" color="green"/>
    <vehicle id="Flow21.0" type="Car21" depart="0.00" fromTaz="656132499" toTaz="cluster_2664674491_655375287_655375288">
        <routeDistribution last="0">
            <route cost="20.28" probability="1.00000000" edges="51289045#4 260881641"/>
        </routeDistribution>
    </vehicle>
    <vType id="Car22" length="5.00" vClass="passenger" color="green"/>
    <vehicle id="Flow22.0" type="Car22" depart="0.00" fromTaz="631668818" toTaz="631668923">
        <routeDistribution last="0">
            <route cost="83.97" probability="1.00000000" edges="49695733#2"/>
        </routeDistribution>
    </vehicle>
    <vType id="Car23" length="5.00" vClass="passenger" color="green"/>
    <vehicle id="Flow23.0" type="Car23" depart="0.00" fromTaz="619137000" toTaz="655374967">
        <routeDistribution last="0">
            <route cost="22.12" probability="1.00000000" edges="51362359#0"/>
        </routeDistribution>
    </vehicle>
    <vType id="Car24" length="5.00" vClass="passenger" color="green"/>
    <vehicle id="Flow24.0" type="Car24" depart="0.00" fromTaz="3208478132" toTaz="656132498">
        <routeDistribution last="0">
            <route cost="62.14" probability="1.00000000" edges="51289045#3 51392936#0"/>
        </routeDistribution>
    </vehicle>
    <vType id="Car25" length="5.00" vClass="passenger" color="green"/>
    <vehicle id="Flow25.0" type="Car25" depart="0.00" fromTaz="3208478128" toTaz="3208478132">
        <routeDistribution last="0">
            <route cost="5.28" probability="1.00000000" edges="314800955"/>
        </routeDistribution>
    </vehicle>
    <vType id="Car26" length="5.00" vClass="passenger" color="green"/>
    <vehicle id="Flow26.0" type="Car26" depart="0.00" fromTaz="cluster_623980090_623980094" toTaz="7782558675">
        <routeDistribution last="0">
            <route cost="26.15" probability="1.00000000" edges="196961379#0"/>
        </routeDistribution>
    </vehicle>
    <vType id="Car27" length="5.00" vClass="passenger" color="green"/>
    <vehicle id="Flow27.0" type="Car27" depart="0.00" fromTaz="622618197" toTaz="622618015">
        <routeDistribution last="0">
            <route cost="0.05" probability="1.00000000" edges="593849721"/>
        </routeDistribution>
    </vehicle>
    <vType id="Car28" length="5.00" vClass="passenger" color="green"/>
    <vehicle id="Flow28.0" type="Car28" depart="0.00" fromTaz="3139322031" toTaz="7199509892">
        <routeDistribution last="0">
            <route cost="117.30" probability="1.00000000" edges="506322841#4"/>
        </routeDistribution>
    </vehicle>
    <vType id="Car29" length="5.00" vClass="passenger" color="green"/>
    <vehicle id="Flow29.0" type="Car29" depart="0.00" fromTaz="655375286" toTaz="cluster655375336_end_0_655375336_end_1_655375336_end_10_655375336_end_11_#8more">
        <routeDistribution last="0">
            <route cost="80.34" probability="0.55906440" edges="244450512#0 244450512#1 244450512#4 244450512#5 593844221#0"/>
            <route cost="191.52" probability="0.44093560" edges="244450512#0 51362431 594658760#0"/>
        </routeDistribution>
    </vehicle>
    <vType id="Car3" length="5.00" vClass="passenger" color="green"/>
    <vehicle id="Flow3.0" type="Car3" depart="0.00" fromTaz="cluster655375228_655375240" toTaz="3208478132">
        <routeDistribution last="1">
            <route cost="365.23" probability="0.48249915" edges="-E1 263217604#0 360843888 244450512#4 314800955"/>
            <route cost="268.17" probability="0.51750085" edges="-E1 -300077497#8 -300077497#5 182334378#0 232003903#0 51289045#1"/>
        </routeDistribution>
    </vehicle>
    <vType id="Car30" length="5.00" vClass="passenger" color="green"/>
    <vehicle id="Flow30.0" type="Car30" depart="0.00" fromTaz="622618112" toTaz="622618197">
        <routeDistribution last="0">
            <route cost="18.56" probability="1.00000000" edges="593847702#3"/>
        </routeDistribution>
    </vehicle>
    <vType id="Car31" length="5.00" vClass="passenger" color="green"/>
    <vehicle id="Flow31.0" type="Car31" depart="0.00" fromTaz="3092676101" toTaz="cluster_623980090_623980094">
        <routeDistribution last="0">
            <route cost="90.15" probability="1.00000000" edges="268564473#0 288878927"/>
        </routeDistribution>
    </vehicle>
    <vType id="Car32" length="5.00" vClass="passenger" color="green"/>
    <vehicle id="Flow32.0" type="Car32" depart="0.00" fromTaz="2081945236" toTaz="3139322031">
        <routeDistribution last="0">
            <route cost="10.42" probability="1.00000000" edges="506322841#3"/>
        </routeDistribution>
    </vehicle>
    <vType id="Car33" length="5.00" vClass="passenger" color="green"/>
    <vehicle id="Flow33.0" type="Car33" depart="0.00" fromTaz="2664674480" toTaz="6251747844">
        <routeDistribution last="0">
            <route cost="27.64" probability="1.00000000" edges="51289045#5"/>
        </routeDistribution>
    </vehicle>
    <vType id="Car4" length="5.00" vClass="passenger" color="green"/>
    <vehicle id="Flow4.0" type="Car4" depart="0.00" fromTaz="cluster655375336_end_0_655375336_end_1_655375336_end_10_655375336_end_11_#8more" toTaz="656132476">
        <routeDistribution last="0">
            <route cost="153.14" probability="0.51206772" edges="232003903#0 51289045#1 51289045#3 51289045#4 51289045#5 -260882327"/>
            <route cost="197.13" probability="0.48793228" edges="232003903#0 593844216#0 545977624#0"/>
        </routeDistribution>
    </vehicle>
    <vType id="Car5" length="5.00" vClass="passenger" color="green"/>
    <vehicle id="Flow5.0" type="Car5" depart="0.00" fromTaz="622618230" toTaz="2013717678">
        <routeDistribution last="1">
            <route cost="327.51" probability="0.39529884" edges="593849715 -593847704#2 593847705 593847703#0 182334379#0 288135628#0"/>
            <route cost="384.23" probability="0.39086409" edges="593849711#0 593849711#2 593847701 593847705 593847703#0 182334379#0 288135628#0"/>
            <route cost="633.90" probability="0.21383706" edges="593849715 49073272#0 49073272#1 49073272#3 49073272#4 353392316#0 288135628#0"/>
        </routeDistribution>
    </vehicle>
    <vType id="Car6" length="5.00" vClass="passenger" color="green"/>
    <vehicle id="Flow6.0" type="Car6" depart="0.00" fromTaz="7782558678" toTaz="3431431576">
        <routeDistribution last="0">
            <route cost="208.96" probability="0.49766584" edges="196961215#0 196961215#2 288878926#0 593849711#0"/>
            <route cost="136.02" probability="0.50233416" edges="196961215#0 196961215#2 241518668#0 336063376#0"/>
        </routeDistribution>
    </vehicle>
    <vType id="Car7" length="5.00" vClass="passenger" color="green"/>
    <vehicle id="Flow7.0" type="Car7" depart="0.00" fromTaz="6251747844" toTaz="cluster_5372642442_631668976_631668981_631669076">
        <routeDistribution last="0">
            <route cost="236.88" probability="1.00000000" edges="-260882327 -545977624#2 593842812#0 593842812#2 593844221#0 49695736#0 182334379#0"/>
        </routeDistribution>
    </vehicle>
    <vType id="Car8" length="5.00" vClass="passenger" color="green"/>
    <vehicle id="Flow8.0" type="Car8" depart="0.00" fromTaz="631668821" toTaz="631668821">
        <routeDistribution last="0">
            <route cost="143.13" probability="1.00000000" edges="-49695726 49695726"/>
        </routeDistribution>
    </vehicle>
    <vType id="Car9" length="5.00" vClass="passenger" color="green"/>
    <vehicle id="Flow9.0" type="Car9" depart="0.00" fromTaz="622618144" toTaz="2713733789">
        <routeDistribution last="0">
            <route cost="112.91" probability="1.00000000" edges="593852345#0 196961378#1"/>
        </routeDistribution>
    </vehicle>
    <vehicle id="Flow20.1" type="Car20" depart="2.00" fromTaz="cluster_5372642442_631668976_631668981_631669076" toTaz="2690921409">
        <routeDistribution last="0">
            <route cost="55.78" probability="1.00000000" edges="506322851#0"/>
        </routeDistribution>
    </vehicle>
    <vehicle id="Flow11.1" type="Car11" depart="2.04" fromTaz="cluster619136880_619136881_cluster_4510442270_5296993511_5296993513_619136931_#1more" toTaz="6252193077">
        <routeDistribution last="0">
            <route cost="205.90" probability="1.00000000" edges="196961377#0 196961377#3 593849718#0"/>
        </routeDistribution>
    </vehicle>
    <vehicle id="Flow5.1" type="Car5" depart="2.04" fromTaz="622618230" toTaz="2013717678">
        <routeDistribution last="1">
            <route cost="390.29" probability="0.33686961" edges="593849711#0 593849711#2 593847701 593847705 593847703#0 182334379#0 288135628#0"/>
            <route cost="470.07" probability="0.32783271" edges="593849715 49073272#0 49073272#1 49073272#3 49073272#4 353392316#0 288135628#0"/>
            <route cost="372.36" probability="0.33529768" edges="593849715 -593847704#2 593847705 593847703#0 182334379#0 288135628#0"/>
        </routeDistribution>
    </vehicle>
    <vehicle id="Flow18.1" type="Car18" depart="2.08" fromTaz="cluster619136880_619136881_cluster_4510442270_5296993511_5296993513_619136931_#1more" toTaz="622618165">
        <routeDistribution last="0">
            <route cost="195.65" probability="1.00000000" edges="48794887#0"/>
        </routeDistribution>
    </vehicle>
    <vehicle id="Flow3.1" type="Car3" depart="2.08" fromTaz="cluster655375228_655375240" toTaz="3208478132">
        <routeDistribution last="1">
            <route cost="290.82" probability="0.49858112" edges="-E1 263217604#0 360843888 244450512#4 314800955"/>
            <route cost="312.40" probability="0.50141888" edges="-E1 -300077497#8 -300077497#5 182334378#0 232003903#0 51289045#1"/>
        </routeDistribution>
    </vehicle>
    <vehicle id="Flow6.1" type="Car6" depart="2.31" fromTaz="7782558678" toTaz="3431431576">
        <routeDistribution last="0">
            <route cost="202.81" probability="0.49038575" edges="196961215#0 196961215#2 241518668#0 336063376#0"/>
            <route cost="196.76" probability="0.50961425" edges="196961215#0 196961215#2 288878926#0 593849711#0"/>
        </routeDistribution>
    </vehicle>
    <vehicle id="Flow27.1" type="Car27" depart="2.73" fromTaz="622618197" toTaz="622618015">
        <routeDistribution last="0">
            <route cost="0.14" probability="1.00000000" edges="593849721"/>
        </routeDistribution>
    </vehicle>
    <vehicle id="Flow13.1" type="Car13" depart="2.78" fromTaz="cluster_9383263990_9383263991_9383263992_9383263993" toTaz="3139323041">
        <routeDistribution last="0">
            <route cost="87.80" probability="1.00000000" edges="506322841#1 198001764#0 182336887#2"/>
        </routeDistribution>
    </vehicle>
    <vehicle id="Flow15.1" type="Car15" depart="2.80" fromTaz="cluster_9383263990_9383263991_9383263992_9383263993" toTaz="cluster_9383263990_9383263991_9383263992_9383263993">
        <routeDistribution last="1">
            <route cost="81.13" probability="0.62768188" edges="506322841#1 182336886 30620492#1"/>
            <route cost="74.64" probability="0.37231812" edges="506322840#0 -1334905223#2 263217603#0"/>
        </routeDistribution>
    </vehicle>
    <vehicle id="Flow0.1" type="Car0" depart="3.09" fromTaz="cluster_3431431575_4777363357_655375231_6982059025" toTaz="3196998953">
        <routeDistribution last="2">
            <route cost="289.48" probability="0.34796212" edges="484988952#0 -51362430 1068440001 1239087513 593844221#0 1334904386#0 303647015#0"/>
            <route cost="355.63" probability="0.33589561" edges="51362429#0 593847701 E0 1334904386#0 303647015#0"/>
            <route cost="349.52" probability="0.31614227" edges="51362429#0 593847701 E0 -594658757#2 303647015#0"/>
        </routeDistribution>
    </vehicle>
    <vehicle id="Flow1.1" type="Car1" depart="3.16" fromTaz="631668923" toTaz="622618112">
        <routeDistribution last="1">
            <route cost="332.30" probability="0.34980610" edges="1068234498#0 288135626#0 1068234499#0 -593847703#3 593847702#0"/>
            <route cost="304.58" probability="0.33577842" edges="1068234498#0 288135626#0 1068234499#0 -593847703#3 -593847705 593847704#0 49073272#0"/>
            <route cost="386.00" probability="0.31441549" edges="1068234498#0 288135626#0 1068234499#0 182334378#0 1068440004#1 593847702#0"/>
        </routeDistribution>
    </vehicle>
    <vehicle id="Flow8.1" type="Car8" depart="3.45" fromTaz="631668821" toTaz="631668821">
        <routeDistribution last="0">
            <route cost="179.98" probability="1.00000000" edges="-49695726 49695726"/>
        </routeDistribution>
    </vehicle>
    <vehicle id="Flow10.1" type="Car10" depart="3.66" fromTaz="2760755470" toTaz="655375241">
        <routeDistribution last="0">
            <route cost="169.18" probability="1.00000000" edges="30620492#0 30620492#1 506322840#0"/>
        </routeDistribution>
    </vehicle>
    <vehicle id="Flow16.1" type="Car16" depart="3.66" fromTaz="622618015" toTaz="622618230">
        <routeDistribution last="0">
            <route cost="30.64" probability="1.00000000" edges="49073274 593852346"/>
        </routeDistribution>
    </vehicle>
    <vehicle id="Flow20.2" type="Car20" depart="4.00" fromTaz="cluster_5372642442_631668976_631668981_631669076" toTaz="2690921409">
        <routeDistribution last="0">
            <route cost="14.32" probability="1.00000000" edges="506322851#0"/>
        </routeDistribution>
    </vehicle>
    <vehicle id="Flow11.2" type="Car11" depart="4.08" fromTaz="cluster619136880_619136881_cluster_4510442270_5296993511_5296993513_619136931_#1more" toTaz="6252193077">
        <routeDistribution last="0">
            <route cost="150.84" probability="1.00000000" edges="196961377#0 196961377#3 593849718#0"/>
        </routeDistribution>
    </vehicle>
    <vehicle id="Flow5.2" type="Car5" depart="4.08" fromTaz="622618230" toTaz="2013717678">
        <routeDistribution last="2">
            <route cost="371.58" probability="0.34448245" edges="593849711#0 593849711#2 593847701 593847705 593847703#0 182334379#0 288135628#0"/>
            <route cost="442.51" probability="0.33484780" edges="593849715 49073272#0 49073272#1 49073272#3 49073272#4 353392316#0 288135628#0"/>
            <route cost="471.68" probability="0.32066976" edges="593849715 -593847704#2 593847705 593847703#0 182334379#0 288135628#0"/>
        </routeDistribution>
    </vehicle>
    <vehicle id="Flow18.2" type="Car18" depart="4.17" fromTaz="cluster619136880_619136881_cluster_4510442270_5296993511_5296993513_619136931_#1more" toTaz="622618165">
        <routeDistribution last="0">
            <route cost="75.83" probability="1.00000000" edges="48794887#0"/>
        </routeDistribution>
    </vehicle>
    <vehicle id="Flow3.2" type="Car3" depart="4.17" fromTaz="cluster655375228_655375240" toTaz="3208478132">
        <routeDistribution last="0">
            <route cost="297.64" probability="0.47023595" edges="-E1 -300077497#8 -300077497#5 182334378#0 232003903#0 51289045#1"/>
            <route cost="193.96" probability="0.52976405" edges="-E1 263217604#0 360843888 244450512#4 314800955"/>
        </routeDistribution>
    </vehicle>
    <vehicle id="Flow6.2" type="Car6" depart="4.61" fromTaz="7782558678" toTaz="3431431576">
        <routeDistribution last="1">
            <route cost="138.25" probability="0.52813304" edges="196961215#0 196961215#2 241518668#0 336063376#0"/>
            <route cost="213.94" probability="0.47186696" edges="196961215#0 196961215#2 288878926#0 593849711#0"/>
        </routeDistribution>
    </vehicle>
    <vehicle id="Flow9.1" type="Car9" depart="4.84" fromTaz="622618144" toTaz="2713733789">
        <routeDistribution last="0">
            <route cost="156.26" probability="1.00000000" edges="593852345#0 196961378#1"/>
        </routeDistribution>
    </vehicle>
    <vehicle id="Flow7.1" type="Car7" depart="5.00" fromTaz="6251747844" toTaz="cluster_5372642442_631668976_631668981_631669076">
        <routeDistribution last="0">
            <route cost="459.19" probability="1.00000000" edges="-260882327 -545977624#2 593842812#0 593842812#2 593844221#0 49695736#0 182334379#0"/>
        </routeDistribution>
    </vehicle>
    <vehicle id="Flow27.2" type="Car27" depart="5.45" fromTaz="622618197" toTaz="622618015">
        <routeDistribution last="0">
            <route cost="0.22" probability="1.00000000" edges="593849721"/>
        </routeDistribution>
    </vehicle>
    <vehicle id="Flow13.2" type="Car13" depart="5.55" fromTaz="cluster_9383263990_9383263991_9383263992_9383263993" toTaz="3139323041">
        <routeDistribution last="0">
            <route cost="60.33" probability="1.00000000" edges="506322841#1 198001764#0 182336887#2"/>
        </routeDistribution>
    </vehicle>
    <vehicle id="Flow4.1" type="Car4" depart="5.56" fromTaz="cluster655375336_end_0_655375336_end_1_655375336_end_10_655375336_end_11_#8more" toTaz="656132476">
        <routeDistribution last="1">
            <route cost="152.27" probability="0.51402993" edges="232003903#0 51289045#1 51289045#3 51289045#4 51289045#5 -260882327"/>
            <route cost="168.19" probability="0.48597007" edges="232003903#0 593844216#0 545977624#0"/>
        </routeDistribution>
    </vehicle>
    <vehicle id="Flow15.2" type="Car15" depart="5.61" fromTaz="cluster_9383263990_9383263991_9383263992_9383263993" toTaz="cluster_9383263990_9383263991_9383263992_9383263993">
        <routeDistribution last="0">
            <route cost="48.28" probability="1.00000000" edges="506322841#1 182336886 30620492#1"/>
        </routeDistribution>
    </vehicle>
    <vehicle id="Flow20.3" type="Car20" depart="6.00" fromTaz="cluster_5372642442_631668976_631668981_631669076" toTaz="2690921409">
        <routeDistribution last="0">
            <route cost="121.13" probability="1.00000000" edges="506322851#0"/>
        </routeDistribution>
    </vehicle>
    <vehicle id="Flow11.3" type="Car11" depart="6.12" fromTaz="cluster619136880_619136881_cluster_4510442270_5296993511_5296993513_619136931_#1more" toTaz="6252193077">
        <routeDistribution last="0">
            <route cost="223.17" probability="1.00000000" edges="196961377#0 196961377#3 593849718#0"/>
        </routeDistribution>
    </vehicle>
    <vehicle id="Flow5.3" type="Car5" depart="6.12" fromTaz="622618230" toTaz="2013717678">
        <routeDistribution last="1">
            <route cost="213.35" probability="0.41960976" edges="593849715 -593847704#2 593847705 593847703#0 182334379#0 288135628#0"/>
            <route cost="562.85" probability="0.23081124" edges="593849715 49073272#0 49073272#1 49073272#3 49073272#4 353392316#0 288135628#0"/>
            <route cost="415.29" probability="0.34957899" edges="593849711#0 593849711#2 593847701 593847705 593847703#0 182334379#0 288135628#0"/>
        </routeDistribution>
    </vehicle>
    <vehicle id="Flow0.2" type="Car0" depart="6.18" fromTaz="cluster_3431431575_4777363357_655375231_6982059025" toTaz="3196998953">
        <routeDistribution last="0">
            <route cost="328.83" probability="0.35733040" edges="51362429#0 593847701 E0 -594658757#2 303647015#0"/>
            <route cost="387.81" probability="0.33201655" edges="51362429#0 593847701 E0 1334904386#0 303647015#0"/>
            <route cost="419.94" probability="0.31065306" edges="484988952#0 -51362430 1068440001 1239087513 593844221#0 -594658757#2 303647015#0"/>
        </routeDistribution>
    </vehicle>
    <vehicle id="Flow18.3" type="Car18" depart="6.25" fromTaz="cluster619136880_619136881_cluster_4510442270_5296993511_5296993513_619136931_#1more" toTaz="622618165">
        <routeDistribution last="0">
            <route cost="127.21" probability="1.00000000" edges="48794887#0"/>
        </routeDistribution>
    </vehicle>
    <vehicle id="Flow3.3" type="Car3" depart="6.25" fromTaz="cluster655375228_655375240" toTaz="3208478132">
        <routeDistribution last="1">
            <route cost="265.56" probability="0.47994815" edges="-E1 263217604#0 360843888 244450512#4 314800955"/>
            <route cost="193.66" probability="0.52005185" edges="-E1 -300077497#8 -300077497#5 182334378#0 232003903#0 51289045#1"/>
        </routeDistribution>
    </vehicle>
    <vehicle id="Flow1.2" type="Car1" depart="6.31" fromTaz="631668923" toTaz="622618112">
        <routeDistribution last="0">
            <route cost="278.77" probability="0.34715666" edges="1068234498#0 288135626#0 1068234499#0 -593847703#3 -593847705 593847704#0 49073272#0"/>
            <route cost="363.06" probability="0.33692112" edges="1068234498#0 288135626#0 1068234499#0 -593847703#3 593847702#0"/>
            <route cost="328.84" probability="0.31592222" edges="1068234498#0 288135626#0 1068234499#0 182334378#0 1068440004#1 -593847705 593847704#0 49073272#0"/>
        </routeDistribution>
    </vehicle>
    <vehicle id="Flow22.1" type="Car22" depart="6.67" fromTaz="631668818" toTaz="631668923">
        <routeDistribution last="0">
            <route cost="124.81" probability="1.00000000" edges="49695733#2"/>
        </routeDistribution>
    </vehicle>
    <vehicle id="Flow8.2" type="Car8" depart="6.90" fromTaz="631668821" toTaz="631668821">
        <routeDistribution last="0">
            <route cost="146.03" probability="1.00000000" edges="-49695726 49695726"/>
        </routeDistribution>
    </vehicle>
    <vehicle id="Flow6.3" type="Car6" depart="6.92" fromTaz="7782558678" toTaz="3431431576">
        <routeDistribution last="0">
            <route cost="142.83" probability="1.00000000" edges="196961215#0 196961215#2 241518668#0 336063376#0"/>
        </routeDistribution>
    </vehicle>
    <vehicle id="Flow10.2" type="Car10" depart="7.32" fromTaz="2760755470" toTaz="655375241">
        <routeDistribution last="1">
            <route cost="84.35" probability="0.56801551" edges="30620492#0 30620492#1 506322840#0"/>
            <route cost="217.46" probability="0.43198449" edges="30620492#0 30620492#1 506322844#0 E1 1334905223#0"/>
        </routeDistribution>
    </vehicle>
    <vehicle id="Flow16.2" type="Car16" depart="7.32" fromTaz="622618015" toTaz="622618230">
        <routeDistribution last="0">
            <route cost="38.78" probability="1.00000000" edges="49073274 593852346"/>
        </routeDistribution>
    </vehicle>
    <vehicle id="Flow20.4" type="Car20" depart="8.00" fromTaz="cluster_5372642442_631668976_631668981_631669076" toTaz="2690921409">
        <routeDistribution last="0">
            <route cost="102.24" probability="1.00000000" edges="506322851#0"/>
        </routeDistribution>
    </vehicle>
    <vehicle id="Flow11.4" type="Car11" depart="8.16" fromTaz="cluster619136880_619136881_cluster_4510442270_5296993511_5296993513_619136931_#1more" toTaz="6252193077">
        <routeDistribution last="0">
            <route cost="197.19" probability="1.00000000" edges="196961377#0 196961377#3 593849718#0"/>
        </routeDistribution>