<?xml version="1.0" encoding="UTF-8"?>

<!-- generated on 2026-02-28 16:01:04 by Eclipse SUMO duarouter Version 1.24.0
<duarouterConfiguration xmlns:xsi="http://www.w3.org/2001/XMLSchema-instance" xsi:noNamespaceSchemaLocation="http://sumo.dlr.de/xsd/duarouterConfiguration.xsd">

    <input>
        <net-file value="./data/ntut_network_split.net copy.xml"/>
        <route-files value="./data/final_output.rou.alt.xml"/>
        <junction-taz value="true"/>
    </input>

    <output>
        <output-file value="./data/final_output.rou.xml"/>
        <alternatives-output value="./data/final_output.rou.alt.xml.tmp"/>
    </output>

    <processing>
        <max-alternatives value="3"/>
        <weights.random-factor value="12"/>
    </processing>

    <report>
        <ignore-errors value="true"/>
    </report>

</duarouterConfiguration>
-->

<routes xmlns:xsi="http://www.w3.org/2001/XMLSchema-instance" xsi:noNamespaceSchemaLocation="http://sumo.dlr.de/xsd/routes_file.xsd">
    <vType id="Car0" length="5.00" vClass="passenger" color="green"/>
    <vehicle id="Flow0.0" type="Car0" depart="0.00" fromTaz="cluster_3431431575_4777363357_655375231_6982059025" toTaz="3196998953">
        <routeDistribution last="1">
            <route cost="339.98" probability="0.37787249" edges="484988952#0 -51362430 1068440001 1239087513 593844221#0 -594658757#2 303647015#0"/>
            <route cost="381.93" probability="0.33167108" edges="51362429#0 1068440006#0 1334904386#0 303647015#0"/>
            <route cost="488.52" probability="0.29045643" edges="51362429#0 593847701 E0 1334904386#0 303647015#0"/>
        </routeDistribution>
    </vehicle>
    <vType id="Car1" length="5.00" vClass="passenger" color="green"/>
    <vehicle id="Flow1.0" type="Car1" depart="0.00" fromTaz="631668923" toTaz="622618112">
        <routeDistribution last="2">
            <route cost="343.93" probability="0.35100673" edges="1068234498#0 288135626#0 1068234499#0 -593847703#3 593847702#0"/>
            <route cost="358.22" probability="0.36729284" edges="1068234498#0 288135626#0 1068234499#0 -593847703#3 -593847705 593847704#0 49073272#0"/>
            <route cost="519.59" probability="0.28170043" edges="1068234498#0 288135626#0 1068234499#0 182334378#0 -E0 593847704#0 49073272#0"/>
        </routeDistribution>
    </vehicle>
    <vType id="Car10" length="5.00" vClass="passenger" color="green"/>
    <vehicle id="Flow10.0" type="Car10" depart="0.00" fromTaz="2760755470" toTaz="655375241">
        <routeDistribution last="0">
            <route cost="134.30" probability="1.00000000" edges="30620492#0 30620492#1 506322840#0"/>
        </routeDistribution>
    </vehicle>
    <vType id="Car11" length="5.00" vClass="passenger" color="green"/>
    <vehicle id="Flow11.0" type="Car11" depart="0.00" fromTaz="cluster619136880_619136881_cluster_4510442270_5296993511_5296993513_619136931_#1more" toTaz="6252193077">
        <routeDistribution last="0">
            <route cost="178.07" probability="1.00000000" edges="196961377#0 196961377#3 593849718#0"/>
        </routeDistribution>
    </vehicle>
    <vType id="Car12" length="5.00" vClass="passenger" color="green"/>
    <vehicle id="Flow12.0" type="Car12" depart="0.00" fromTaz="cluster_2664674491_655375287_655375288" toTaz="2664674489">
        <routeDistribution last="0">
            <route cost="62.85" probability="1.00000000" edges="260881642#0"/>
        </routeDistribution>
    </vehicle>
    <vType id="Car13" length="5.00" vClass="passenger" color="green"/>
    <vehicle id="Flow13.0" type="Car13" depart="0.00" fromTaz="cluster_9383263990_9383263991_9383263992_9383263993" toTaz="3139323041">
        <routeDistribution last="0">
            <route cost="78.15" probability="1.00000000" edges="506322841#1 198001764#0 182336887#2"/>
        </routeDistribution>
    </vehicle>
    <vType id="Car14" length="5.00" vClass="passenger" color="green"/>
    <vehicle id="Flow14.0" type="Car14" depart="0.00" fromTaz="3139322031" toTaz="1926948273">
        <routeDistribution last="0">
            <route cost="16.87" probability="1.00000000" edges="182336887#0"/>
        </routeDistribution>
    </vehicle>
    <vType id="Car15" length="5.00" vClass="passenger" color="green"/>
    <vehicle id="Flow15.0" type="Car15" depart="0.00" fromTaz="cluster_9383263990_9383263991_9383263992_9383263993" toTaz="cluster_9383263990_9383263991_9383263992_9383263993">
        <routeDistribution last="0">
            <route cost="66.44" probability="1.00000000" edges="506322841#1 182336886 30620492#1"/>
        </routeDistribution>
    </vehicle>
    <vType id="Car16" length="5.00" vClass="passenger" color="green"/>
    <vehicle id="Flow16.0" type="Car16" depart="0.00" fromTaz="622618015" toTaz="622618230">
        <routeDistribution last="0">
            <route cost="43.20" probability="1.00000000" edges="49073274 593852346"/>
        </routeDistribution>
    </vehicle>
    <vType id="Car17" length="5.00" vClass="passenger" color="green"/>
    <vehicle id="Flow17.0" type="Car17" depart="0.00" fromTaz="3086736515" toTaz="622618144">
        <routeDistribution last="1">
            <route cost="50.97" probability="0.49144813" edges="-49073264#1 49073274"/>
            <route cost="19.74" probability="0.50855187" edges="593852343 906806086#0"/>
        </routeDistribution>
    </vehicle>
    <vType id="Car18" length="5.00" vClass="passenger" color="green"/>
    <vehicle id="Flow18.0" type="Car18" depart="0.00" fromTaz="cluster619136880_619136881_cluster_4510442270_5296993511_5296993513_619136931_#1more" toTaz="622618165">
        <routeDistribution last="0">
            <route cost="174.66" probability="1.00000000" edges="48794887#0"/>
        </routeDistribution>
    </vehicle>
    <vType id="Car19" length="5.00" vClass="passenger" color="green"/>
    <vehicle id="Flow19.0" type="Car19" depart="0.00" fromTaz="cluster3086736522_655375108_655375247_655375401_#1more" toTaz="cluster655375228_655375240">
        <routeDistribution last="0">
            <route cost="33.44" probability="1.00000000" edges="594658762#0"/>
        </routeDistribution>
    </vehicle>
    <vType id="Car2" length="5.00" vClass="passenger" color="green"/>
    <vehicle id="Flow2.0" type="Car2" depart="0.00" fromTaz="1926948273" toTaz="1926948228">
        <routeDistribution last="0">
            <route cost="6.93" probability="1.00000000" edges="261898534"/>
        </routeDistribution>
    </vehicle>
    <vType id="Car20" length="5.00" vClass="passenger" color="green"/>
    <vehicle id="Flow20.0" type="Car20" depart="0.00" fromTaz="cluster_5372642442_631668976_631668981_631669076" toTaz="2690921409">
        <routeDistribution last="0">
            <route cost="84.84" probability="1.00000000" edges="506322851#0"/>
        </routeDistribution>
    </vehicle>
    <vType id="Car21" length="5.00" vClass="passenger" color="green"/>
    <vehicle id="Flow21.0" type="Car21" depart="0.00" fromTaz="656132499" toTaz="cluster_2664674491_655375287_655375288">
        <routeDistribution last="0">
            <route cost="27.37" probability="1.00000000" edges="51289045#4 260881641"/>
        </routeDistribution>
    </vehicle>
    <vType id="Car22" length="5.00" vClass="passenger" color="green"/>
    <vehicle id="Flow22.0" type="Car22" depart="0.00" fromTaz="631668818" toTaz="631668923">
        <routeDistribution last="0">
            <route cost="61.06" probability="1.00000000" edges="49695733#2"/>
        </routeDistribution>
    </vehicle>
    <vType id="Car23" length="5.00" vClass="passenger" color="green"/>
    <vehicle id="Flow23.0" type="Car23" depart="0.00" fromTaz="619137000" toTaz="655374967">
        <routeDistribution last="0">
            <route cost="65.32" probability="1.00000000" edges="51362359#0"/>
        </routeDistribution>
    </vehicle>
    <vType id="Car24" length="5.00" vClass="passenger" color="green"/>
    <vehicle id="Flow24.0" type="Car24" depart="0.00" fromTaz="3208478132" toTaz="656132498">
        <routeDistribution last="0">
            <route cost="90.25" probability="1.00000000" edges="51289045#3 51392936#0"/>
        </routeDistribution>
    </vehicle>
    <vType id="Car25" length="5.00" vClass="passenger" color="green"/>
    <vehicle id="Flow25.0" type="Car25" depart="0.00" fromTaz="3208478128" toTaz="3208478132">
        <routeDistribution last="0">
            <route cost="6.11" probability="1.00000000" edges="314800955"/>
        </routeDistribution>
    </vehicle>
    <vType id="Car26" length="5.00" vClass="passenger" color="green"/>
    <vehicle id="Flow26.0" type="Car26" depart="0.00" fromTaz="cluster_623980090_623980094" toTaz="7782558675">
        <routeDistribution last="0">
            <route cost="61.64" probability="1.00000000" edges="196961379#0"/>
        </routeDistribution>
    </vehicle>
    <vType id="Car27" length="5.00" vClass="passenger" color="green"/>
    <vehicle id="Flow27.0" type="Car27" depart="0.00" fromTaz="622618197" toTaz="622618015">
        <routeDistribution last="0">
            <route cost="0.16" probability="1.00000000" edges="593849721"/>
        </routeDistribution>
    </vehicle>
    <vType id="Car28" length="5.00" vClass="passenger" color="green"/>
    <vehicle id="Flow28.0" type="Car28" depart="0.00" fromTaz="3139322031" toTaz="7199509892">
        <routeDistribution last="0">
            <route cost="65.23" probability="1.00000000" edges="506322841#4"/>
        </routeDistribution>
    </vehicle>
    <vType id="Car29" length="5.00" vClass="passenger" color="green"/>
    <vehicle id="Flow29.0" type="Car29" depart="0.00" fromTaz="655375286" toTaz="cluster655375336_end_0_655375336_end_1_655375336_end_10_655375336_end_11_#8more">
        <routeDistribution last="0">
            <route cost="104.49" probability="0.31540984" edges="244450512#0 51362431 594658757#0"/>
            <route cost="117.02" probability="0.38466890" edges="244450512#0 244450512#1 244450512#4 244450512#5 593844221#0"/>
            <route cost="164.95" probability="0.29992127" edges="244450512#0 51362431 594658760#0"/>
        </routeDistribution>
    </vehicle>
    <vType id="Car3" length="5.00" vClass="passenger" color="green"/>
    <vehicle id="Flow3.0" type="Car3" depart="0.00" fromTaz="cluster655375228_655375240" toTaz="3208478132">
        <routeDistribution last="1">
            <route cost="248.29" probability="0.51328813" edges="-E1 263217604#0 360843888 244450512#4 314800955"/>
            <route cost="203.90" probability="0.48671187" edges="-E1 -300077497#8 -300077497#5 182334378#0 232003903#0 51289045#1"/>
        </routeDistribution>
    </vehicle>
    <vType id="Car30" length="5.00" vClass="passenger" color="green"/>
    <vehicle id="Flow30.0" type="Car30" depart="0.00" fromTaz="622618112" toTaz="622618197">
        <routeDistribution last="0">
            <route cost="26.29" probability="1.00000000" edges="593847702#3"/>
        </routeDistribution>
    </vehicle>
    <vType id="Car31" length="5.00" vClass="passenger" color="green"/>
    <vehicle id="Flow31.0" type="Car31" depart="0.00" fromTaz="3092676101" toTaz="cluster_623980090_623980094">
        <routeDistribution last="0">
            <route cost="93.59" probability="1.00000000" edges="268564473#0 288878927"/>
        </routeDistribution>
    </vehicle>
    <vType id="Car32" length="5.00" vClass="passenger" color="green"/>
    <vehicle id="Flow32.0" type="Car32" depart="0.00" fromTaz="2081945236" toTaz="3139322031">
        <routeDistribution last="0">
            <route cost="10.14" probability="1.00000000" edges="506322841#3"/>
        </routeDistribution>
    </vehicle>
    <vType id="Car4" length="5.00" vClass="passenger" color="green"/>
    <vehicle id="Flow4.0" type="Car4" depart="0.00" fromTaz="cluster655375336_end_0_655375336_end_1_655375336_end_10_655375336_end_11_#8more" toTaz="656132476">
        <routeDistribution last="0">
            <route cost="180.35" probability="0.50804028" edges="232003903#0 593844216#0 545977624#0"/>
            <route cost="176.95" probability="0.49195972" edges="232003903#0 51289045#1 51289045#3 51289045#4 51289045#5 -260882327"/>
        </routeDistribution>
    </vehicle>
    <vType id="Car5" length="5.00" vClass="passenger" color="green"/>
    <vehicle id="Flow5.0" type="Car5" depart="0.00" fromTaz="622618230" toTaz="2013717678">
        <routeDistribution last="0">
            <route cost="531.06" probability="0.33077746" edges="593849715 49073272#0 49073272#1 49073272#3 49073272#4 353392316#0 288135628#0"/>
            <route cost="475.01" probability="0.37220261" edges="593849711#0 593849711#2 593847701 593847705 593847703#0 182334379#0 288135628#0"/>
            <route cost="489.30" probability="0.29701993" edges="593849715 -593847704#2 593847705 593847703#0 300077497#0 35274074#0 506322846#0 506322846#2 288135628#0"/>
        </routeDistribution>
    </vehicle>
    <vType id="Car6" length="5.00" vClass="passenger" color="green"/>
    <vehicle id="Flow6.0" type="Car6" depart="0.00" fromTaz="7782558678" toTaz="3431431576">
        <routeDistribution last="1">
            <route cost="210.17" probability="0.49891941" edges="196961215#0 196961215#2 288878926#0 593849711#0"/>
            <route cost="208.08" probability="0.50108059" edges="196961215#0 196961215#2 241518668#0 336063376#0"/>
        </routeDistribution>
    </vehicle>
    <vType id="Car7" length="5.00" vClass="passenger" color="green"/>
    <vehicle id="Flow7.0" type="Car7" depart="0.00" fromTaz="6251747844" toTaz="cluster_5372642442_631668976_631668981_631669076">
        <routeDistribution last="0">
            <route cost="377.66" probability="1.00000000" edges="-260882327 -545977624#2 593842812#0 593842812#2 593844221#0 49695736#0 182334379#0"/>
        </routeDistribution>
    </vehicle>
    <vType id="Car8" length="5.00" vClass="passenger" color="green"/>
    <vehicle id="Flow8.0" type="Car8" depart="0.00" fromTaz="631668821" toTaz="631668821">
        <routeDistribution last="0">
            <route cost="162.24" probability="1.00000000" edges="-49695726 49695726"/>
        </routeDistribution>
    </vehicle>
    <vType id="Car9" length="5.00" vClass="passenger" color="green"/>
    <vehicle id="Flow9.0" type="Car9" depart="0.00" fromTaz="622618144" toTaz="2713733789">
        <routeDistribution last="0">
            <route cost="185.01" probability="1.00000000" edges="593852345#0 196961378#1"/>
        </routeDistribution>
    </vehicle>
    <vehicle id="Flow11.1" type="Car11" depart="2.44" fromTaz="cluster619136880_619136881_cluster_4510442270_5296993511_5296993513_619136931_#1more" toTaz="6252193077">
        <routeDistribution last="0">
            <route cost="260.15" probability="1.00000000" edges="196961377#0 196961377#3 593849718#0"/>
        </routeDistribution>
    </vehicle>
    <vehicle id="Flow18.1" type="Car18" depart="2.44" fromTaz="cluster619136880_619136881_cluster_4510442270_5296993511_5296993513_619136931_#1more" toTaz="622618165">
        <routeDistribution last="0">
            <route cost="231.62" probability="1.00000000" edges="48794887#0"/>
        </routeDistribution>
    </vehicle>
    <vehicle id="Flow20.1" type="Car20" depart="2.68" fromTaz="cluster_5372642442_631668976_631668981_631669076" toTaz="2690921409">
        <routeDistribution last="0">
            <route cost="42.32" probability="1.00000000" edges="506322851#0"/>
        </routeDistribution>
    </vehicle>
    <vehicle id="Flow5.1" type="Car5" depart="3.26" fromTaz="622618230" toTaz="2013717678">
        <routeDistribution last="1">
            <route cost="358.54" probability="0.51179104" edges="593849711#0 593849711#2 593847701 593847705 593847703#0 182334379#0 288135628#0"/>
            <route cost="472.41" probability="0.48820896" edges="593849715 -593847704#2 593847705 593847703#0 182334379#0 288135628#0"/>
        </routeDistribution>
    </vehicle>
    <vehicle id="Flow6.1" type="Car6" depart="3.33" fromTaz="7782558678" toTaz="3431431576">
        <routeDistribution last="1">
            <route cost="162.95" probability="0.51063631" edges="196961215#0 196961215#2 288878926#0 593849711#0"/>
            <route cost="161.72" probability="0.48936369" edges="196961215#0 196961215#2 241518668#0 336063376#0"/>
        </routeDistribution>
    </vehicle>
    <vehicle id="Flow3.1" type="Car3" depart="3.41" fromTaz="cluster655375228_655375240" toTaz="3208478132">
        <routeDistribution last="0">
            <route cost="292.25" probability="0.48688514" edges="-E1 -300077497#8 -300077497#5 182334378#0 232003903#0 51289045#1"/>
            <route cost="195.69" probability="0.51311486" edges="-E1 263217604#0 360843888 244450512#4 314800955"/>
        </routeDistribution>
    </vehicle>
    <vehicle id="Flow8.1" type="Car8" depart="3.57" fromTaz="631668821" toTaz="631668821">
        <routeDistribution last="0">
            <route cost="76.44" probability="1.00000000" edges="-49695726 49695726"/>
        </routeDistribution>
    </vehicle>
    <vehicle id="Flow27.1" type="Car27" depart="4.35" fromTaz="622618197" toTaz="622618015">
        <routeDistribution last="0">
            <route cost="0.22" probability="1.00000000" edges="593849721"/>
        </routeDistribution>
    </vehicle>
    <vehicle id="Flow13.1" type="Car13" depart="4.55" fromTaz="cluster_9383263990_9383263991_9383263992_9383263993" toTaz="3139323041">
        <routeDistribution last="0">
            <route cost="74.91" probability="1.00000000" edges="506322841#1 198001764#0 182336887#2"/>
        </routeDistribution>
    </vehicle>
    <vehicle id="Flow0.1" type="Car0" depart="4.62" fromTaz="cluster_3431431575_4777363357_655375231_6982059025" toTaz="3196998953">
        <routeDistribution last="1">
            <route cost="233.66" probability="0.40332417" edges="51362429#0 1068440006#0 -594658757#2 303647015#0"/>
            <route cost="380.39" probability="0.30885201" edges="484988952#0 -51362430 1068440001 1239087513 593844221#0 1334904386#0 303647015#0"/>
            <route cost="483.15" probability="0.28782382" edges="51362429#0 593847701 E0 -594658757#2 303647015#0"/>
        </routeDistribution>
    </vehicle>
    <vehicle id="Flow11.2" type="Car11" depart="4.88" fromTaz="cluster619136880_619136881_cluster_4510442270_5296993511_5296993513_619136931_#1more" toTaz="6252193077">
        <routeDistribution last="0">
            <route cost="250.15" probability="1.00000000" edges="196961377#0 196961377#3 593849718#0"/>
        </routeDistribution>
    </vehicle>
    <vehicle id="Flow18.2" type="Car18" depart="4.88" fromTaz="cluster619136880_619136881_cluster_4510442270_5296993511_5296993513_619136931_#1more" toTaz="622618165">
        <routeDistribution last="0">
            <route cost="22.32" probability="1.00000000" edges="48794887#0"/>
        </routeDistribution>
    </vehicle>
    <vehicle id="Flow1.1" type="Car1" depart="4.92" fromTaz="631668923" toTaz="622618112">
        <routeDistribution last="0">
            <route cost="298.63" probability="0.38177530" edges="1068234498#0 288135626#0 1068234499#0 -593847703#3 593847702#0"/>
            <route cost="310.37" probability="0.33809425" edges="1068234498#0 288135626#0 1068234499#0 182334378#0 1068440004#1 593847702#0"/>
            <route cost="447.20" probability="0.28013045" edges="1068234498#0 288135626#0 1068234499#0 182334378#0 -E0 593847704#0 49073272#0"/>
        </routeDistribution>
    </vehicle>
    <vehicle id="Flow20.2" type="Car20" depart="5.36" fromTaz="cluster_5372642442_631668976_631668981_631669076" toTaz="2690921409">
        <routeDistribution last="0">
            <route cost="41.58" probability="1.00000000" edges="506322851#0"/>
        </routeDistribution>
    </vehicle>
    <vehicle id="Flow15.1" type="Car15" depart="5.56" fromTaz="cluster_9383263990_9383263991_9383263992_9383263993" toTaz="cluster_9383263990_9383263991_9383263992_9383263993">
        <routeDistribution last="1">
            <route cost="94.44" probability="0.28118605" edges="506322840#0 -1334905223#2 263217603#0"/>
            <route cost="52.82" probability="0.71881395" edges="506322841#1 182336886 30620492#1"/>
        </routeDistribution>
    </vehicle>
    <vehicle id="Flow16.1" type="Car16" depart="5.88" fromTaz="622618015" toTaz="622618230">
        <routeDistribution last="0">
            <route cost="38.94" probability="1.00000000" edges="49073274 593852346"/>
        </routeDistribution>
    </vehicle>
    <vehicle id="Flow10.1" type="Car10" depart="6.00" fromTaz="2760755470" toTaz="655375241">
        <routeDistribution last="0">
            <route cost="188.16" probability="1.00000000" edges="30620492#0 30620492#1 506322840#0"/>
        </routeDistribution>
    </vehicle>
    <vehicle id="Flow5.2" type="Car5" depart="6.52" fromTaz="622618230" toTaz="2013717678">
        <routeDistribution last="1">
            <route cost="348.20" probability="0.45897775" edges="593849711#0 593849711#2 593847701 593847705 593847703#0 182334379#0 288135628#0"/>
            <route cost="298.05" probability="0.54102225" edges="593849715 -593847704#2 593847705 593847703#0 182334379#0 288135628#0"/>
        </routeDistribution>
    </vehicle>
    <vehicle id="Flow6.2" type="Car6" depart="6.67" fromTaz="7782558678" toTaz="3431431576">
        <routeDistribution last="1">
            <route cost="150.98" probability="0.51799012" edges="196961215#0 196961215#2 241518668#0 336063376#0"/>
            <route cost="156.55" probability="0.48200988" edges="196961215#0 196961215#2 288878926#0 593849711#0"/>
        </routeDistribution>
    </vehicle>
    <vehicle id="Flow3.2" type="Car3" depart="6.82" fromTaz="cluster655375228_655375240" toTaz="3208478132">
        <routeDistribution last="1">
            <route cost="224.64" probability="0.51962387" edges="-E1 -300077497#8 -300077497#5 182334378#0 232003903#0 51289045#1"/>
            <route cost="253.79" probability="0.48037613" edges="-E1 263217604#0 360843888 244450512#4 314800955"/>
        </routeDistribution>
    </vehicle>
    <vehicle id="Flow8.2" type="Car8" depart="7.14" fromTaz="631668821" toTaz="631668821">
        <routeDistribution last="0">
            <route cost="138.30" probability="1.00000000" edges="-49695726 49695726"/>
        </routeDistribution>
    </vehicle>
    <vehicle id="Flow11.3" type="Car11" depart="7.32" fromTaz="cluster619136880_619136881_cluster_4510442270_5296993511_5296993513_619136931_#1more" toTaz="6252193077">
        <routeDistribution last="0">
            <route cost="311.93" probability="1.00000000" edges="196961377#0 196961377#3 593849718#0"/>
        </routeDistribution>
    </vehicle>
    <vehicle id="Flow18.3" type="Car18" depart="7.32" fromTaz="cluster619136880_619136881_cluster_4510442270_5296993511_5296993513_619136931_#1more" toTaz="622618165">
        <routeDistribution last="0">
            <route cost="186.87" probability="1.00000000" edges="48794887#0"/>
        </routeDistribution>
    </vehicle>
    <vehicle id="Flow9.1" type="Car9" depart="7.89" fromTaz="622618144" toTaz="2713733789">
        <routeDistribution last="0">
            <route cost="202.86" probability="1.00000000" edges="593852345#0 196961378#1"/>
        </routeDistribution>
    </vehicle>
    <vehicle id="Flow20.3" type="Car20" depart="8.03" fromTaz="cluster_5372642442_631668976_631668981_631669076" toTaz="2690921409">
        <routeDistribution last="0">
            <route cost="36.44" probability="1.00000000" edges="506322851#0"/>
        </routeDistribution>
    </vehicle>
    <vehicle id="Flow4.1" type="Car4" depart="8.57" fromTaz="cluster655375336_end_0_655375336_end_1_655375336_end_10_655375336_end_11_#8more" toTaz="656132476">
        <routeDistribution last="0">
            <route cost="166.90" probability="1.00000000" edges="232003903#0 51289045#1 51289045#3 51289045#4 51289045#5 -260882327"/>
        </routeDistribution>
    </vehicle>
    <vehicle id="Flow7.1" type="Car7" depart="8.57" fromTaz="6251747844" toTaz="cluster_5372642442_631668976_631668981_631669076">
        <routeDistribution last="0">
            <route cost="264.22" probability="1.00000000" edges="-260882327 -545977624#2 593842812#0 593842812#2 593844221#0 49695736#0 182334379#0"/>
        </routeDistribution>
    </vehicle>
    <vehicle id="Flow27.2" type="Car27" depart="8.69" fromTaz="622618197" toTaz="622618015">
        <routeDistribution last="0">
            <route cost="0.10" probability="1.00000000" edges="593849721"/>
        </routeDistribution>
    </vehicle>
    <vehicle id="Flow13.2" type="Car13" depart="9.09" fromTaz="cluster_9383263990_9383263991_9383263992_9383263993" toTaz="3139323041">
        <routeDistribution last="0">
            <route cost="50.93" probability="0.59355360" edges="506322841#1 198001764#0 182336887#2"/>
            <route cost="82.70" probability="0.40644640" edges="506322841#1 506322841#3 182336887#0 182336887#2"/>
        </routeDistribution>
    </vehicle>
    <vehicle id="Flow0.2" type="Car0" depart="9.23" fromTaz="cluster_3431431575_4777363357_655375231_6982059025" toTaz="3196998953">
        <routeDistribution last="1">
            <route cost="373.98" probability="0.52978347" edges="51362429#0 593847701 E0 1334904386#0 303647015#0"/>
            <route cost="466.61" probability="0.47021653" edges="484988952#0 -51362430 1068440001 1239087513 593844221#0 -594658757#2 303647015#0"/>
        </routeDistribution>
    </vehicle>
    <vehicle id="Flow22.1" type="Car22" depart="9.38" fromTaz="631668818" toTaz="631668923">
        <routeDistribution last="0">
            <route cost="110.08" probability="1.00000000" edges="49695733#2"/>
        </routeDistribution>
    </vehicle>
    <vehicle id="Flow11.4" type="Car11" depart="9.76" fromTaz="cluster619136880_619136881_cluster_4510442270_5296993511_5296993513_619136931_#1more" toTaz="6252193077">
        <routeDistribution last="0">
            <route cost="283.32" probability="1.00000000" edges="196961377#0 196961377#3 593849718#0"/>
        </routeDistribution>
    </vehicle>
    <vehicle id="Flow18.4" type="Car18" depart="9.76" fromTaz="cluster619136880_619136881_cluster_4510442270_5296993511_5296993513_619136931_#1more" toTaz="622618165">
        <routeDistribution last="0">
            <route cost="186.92" probability="1.00000000" edges="48794887#0"/>
        </routeDistribution>
    </vehicle>
    <vehicle id="Flow5.3" type="Car5" depart="9.78" fromTaz="622618230" toTaz="2013717678">
        <routeDistribution last="1">
            <route cost="254.54" probability="0.39984255" edges="593849715 -593847704#2 593847705 593847703#0 182334379#0 288135628#0"/>
            <route cost="475.61" probability="0.27624639" edges="593849715 49073272#0 49073272#1 49073272#3 49073272#4 353392316#0 288135628#0"/>
            <route cost="378.44" probability="0.32391106" edges="593849711#0 593849711#2 593847701 593847705 593847703#0 182334379#0 288135628#0"/>
        </routeDistribution>
    </vehicle>
    <vehicle id="Flow1.2" type="Car1" depart="9.84" fromTaz="631668923" toTaz="622618112">
        <routeDistribution last="2">
            <route cost="291.41" probability="0.37823590" edges="1068234498#0 288135626#0 1068234499#0 -593847703#3 593847702#0"/>
            <route cost="302.09" probability="0.33913051" edges="1068234498#0 288135626#0 1068234499#0 -593847703#3 -593847705 593847704#0 49073272#0"/>
            <route cost="534.25" probability="0.28263359" edges="1068234498#0 288135626#0 1068234499#0 182334378#0 1068440004#1 593847702#0"/>
        </routeDistribution>
    </vehicle>
    <vehicle id="Flow6.3" type="Car6" depart="10.00" fromTaz="7782558678" toTaz="3431431576">
        <routeDistribution last="1">
            <route cost="105.55" probability="0.60568020" edges="196961215#0 196961215#2 241518668#0 336063376#0"/>
            <route cost="157.02" probability="0.39431980" edges="196961215#0 196961215#2 288878926#0 593849711#0"/>
        </routeDistribution>
    </vehicle>
    <vehicle id="Flow3.3" type="Car3" depart="10.23" fromTaz="cluster655375228_655375240" toTaz="3208478132">
        <routeDistribution last="0">
            <route cost="237.38" probability="0.54549552" edges="-E1 -300077497#8 -300077497#5 182334378#0 232003903#0 51289045#1"/>
            <route cost="352.17" probability="0.45450448" edges="-E1 263217604#0 360843888 244450512#4 314800955"/>
        </routeDistribution>
    </vehicle>
    <vehicle id="Flow20.4" type="Car20" depart="10.71" fromTaz="cluster_5372642442_631668976_631668981_631669076" toTaz="2690921409">
        <routeDistribution last="0">
            <route cost="127.94" probability="1.00000000" edges="506322851#0"/>
        </routeDistribution>
    </vehicle>
    <vehicle id="Flow8.3" type="Car8" depart="10.71" fromTaz="631668821" toTaz="631668821">
        <routeDistribution last="0">
            <route cost="112.61" probability="1.00000000" edges="-49695726 49695726"/>
        </routeDistribution>
    </vehicle>
    <vehicle id="Flow15.2" type="Car15" depart="11.11" fromTaz="cluster_9383263990_9383263991_9383263992_9383263993" toTaz="cluster_9383263990_9383263991_9383263992_9383263993">
        <routeDistribution last="0">
            <route cost="94.96" probability="1.00000000" edges="506322841#1 182336886 30620492#1"/>
        </routeDistribution>
    </vehicle>
    <vehicle id="Flow31.1" type="Car31" depart="11.11" fromTaz="3092676101" toTaz="cluster_623980090_623980094">
        <routeDistribution last="0">
            <route cost="74.02" probability="1.00000000" edges="268564473#0 288878927"/>
        </routeDistribution>
    </vehicle>
    <vehicle id="Flow16.2" type="Car16" depart="11.76" fromTaz="622618015" toTaz="622618230">
        <routeDistribution last="0">
            <route cost="33.44" probability="1.00000000" edges="49073274 593852346"/>
        </routeDistribution>
    </vehicle>
    <vehicle id="Flow10.2" type="Car10" depart="12.00" fromTaz="2760755470" toTaz="655375241">