<?xml version="1.0" encoding="UTF-8"?>

<!-- generated on 2026-02-13 17:46:52 by Eclipse SUMO duarouter Version 1.24.0
<duarouterConfiguration xmlns:xsi="http://www.w3.org/2001/XMLSchema-instance" xsi:noNamespaceSchemaLocation="http://sumo.dlr.de/xsd/duarouterConfiguration.xsd">

    <input>
        <net-file value="./data/ntut_network_split.net copy.xml"/>
        <route-files value="./data/final_output.rou.alt.xml"/>
        <junction-taz value="true"/>
    </input>

    <output>
        <output-file value="./data/final_output.rou.xml"/>
        <alternatives-output value="./data/final_output.rou.alt.xml.tmp"/>
    </output>

    <processing>
        <max-alternatives value="3"/>
        <weights.random-factor value="12"/>
    </processing>

    <report>
        <ignore-errors value="true"/>
    </report>

</duarouterConfiguration>
-->

<routes xmlns:xsi="http://www.w3.org/2001/XMLSchema-instance" xsi:noNamespaceSchemaLocation="http://sumo.dlr.de/xsd/routes_file.xsd">
    <vType id="Car0" length="5.00" vClass="passenger" color="green"/>
    <vehicle id="Flow0.0" type="Car0" depart="0.00" fromTaz="cluster3086736522_655375108_655375247_655375401_#1more" toTaz="3196998953">
        <route edges="303647015#0"/>
    </vehicle>
    <vType id="Car1" length="5.00" vClass="passenger" color="green"/>
    <vehicle id="Flow1.0" type="Car1" depart="0.00" fromTaz="cluster_2038168688_655375573" toTaz="3086736518">
        <route edges="506322848#0 506322844#0 263217604#0 594658760#0 1068440004#1 -593847705"/>
    </vehicle>
    <vType id="Car10" length="5.00" vClass="passenger" color="green"/>
    <vehicle id="Flow10.0" type="Car10" depart="0.00" fromTaz="622618015" toTaz="622618015">
        <route edges="49073274 593852346 593849715 593849724"/>
    </vehicle>
    <vType id="Car11" length="5.00" vClass="passenger" color="green"/>
    <vehicle id="Flow11.0" type="Car11" depart="0.00" fromTaz="3139322031" toTaz="7199509892">
        <route edges="506322841#4"/>
    </vehicle>
    <vType id="Car12" length="5.00" vClass="passenger" color="green"/>
    <vehicle id="Flow12.0" type="Car12" depart="0.00" fromTaz="cluster_9383263990_9383263991_9383263992_9383263993" toTaz="655375241">
        <route edges="506322840#0"/>
    </vehicle>
    <vType id="Car13" length="5.00" vClass="passenger" color="green"/>
    <vehicle id="Flow13.0" type="Car13" depart="0.00" fromTaz="5664237422" toTaz="622618144">
        <route edges="906806086#0"/>
    </vehicle>
    <vType id="Car14" length="5.00" vClass="passenger" color="green"/>
    <vehicle id="Flow14.0" type="Car14" depart="0.00" fromTaz="cluster_5372642442_631668976_631668981_631669076" toTaz="2690921409">
        <route edges="506322851#0"/>
    </vehicle>
    <vType id="Car15" length="5.00" vClass="passenger" color="green"/>
    <vehicle id="Flow15.0" type="Car15" depart="0.00" fromTaz="655375232" toTaz="cluster_2038168688_655375573">
        <route edges="593847701 593847705 593847703#0 300077497#0 35274074#0"/>
    </vehicle>
    <vType id="Car16" length="5.00" vClass="passenger" color="green"/>
    <vehicle id="Flow16.0" type="Car16" depart="0.00" fromTaz="cluster_623980090_623980094" toTaz="2713733789">
        <route edges="196961378#1"/>
    </vehicle>
    <vType id="Car17" length="5.00" vClass="passenger" color="green"/>
    <vehicle id="Flow17.0" type="Car17" depart="0.00" fromTaz="631668818" toTaz="2013717678">
        <route edges="420578931#0 420578931#1 506322851#2 506322853#0 668037874 196961377#0 -360018417 49073272#4 353392316#0 288135628#0"/>
    </vehicle>
    <vType id="Car18" length="5.00" vClass="passenger" color="green"/>
    <vehicle id="Flow18.0" type="Car18" depart="0.00" fromTaz="619137000" toTaz="655374967">
        <route edges="51362359#0"/>
    </vehicle>
    <vType id="Car19" length="5.00" vClass="passenger" color="green"/>
    <vehicle id="Flow19.0" type="Car19" depart="0.00" fromTaz="cluster619136880_619136881_cluster_4510442270_5296993511_5296993513_619136931_#1more" toTaz="622618165">
        <route edges="48794887#0"/>
    </vehicle>
    <vType id="Car2" length="5.00" vClass="passenger" color="green"/>
    <vehicle id="Flow2.0" type="Car2" depart="0.00" fromTaz="3208478128" toTaz="3208478132">
        <route edges="314800955"/>
    </vehicle>
    <vType id="Car20" length="5.00" vClass="passenger" color="green"/>
    <vehicle id="Flow20.0" type="Car20" depart="0.00" fromTaz="656132499" toTaz="656132498">
        <route edges="51392936#0"/>
    </vehicle>
    <vType id="Car21" length="5.00" vClass="passenger" color="green"/>
    <vehicle id="Flow21.0" type="Car21" depart="0.00" fromTaz="cluster655375336_end_0_655375336_end_1_655375336_end_10_655375336_end_11_#8more" toTaz="cluster_2528018119_655375236">
        <route edges="49695736#0"/>
    </vehicle>
    <vType id="Car22" length="5.00" vClass="passenger" color="green"/>
    <vehicle id="Flow22.0" type="Car22" depart="0.00" fromTaz="cluster_3431431575_4777363357_655375231_6982059025" toTaz="655375232">
        <route edges="51362429#0"/>
    </vehicle>
    <vType id="Car23" length="5.00" vClass="passenger" color="green"/>
    <vehicle id="Flow23.0" type="Car23" depart="0.00" fromTaz="2749340167" toTaz="cluster_9383263990_9383263991_9383263992_9383263993">
        <route edges="30620492#1"/>
    </vehicle>
    <vType id="Car24" length="5.00" vClass="passenger" color="green"/>
    <vehicle id="Flow24.0" type="Car24" depart="0.00" fromTaz="1973482489" toTaz="cluster_5372642442_631668976_631668981_631669076">
        <route edges="506322846#2"/>
    </vehicle>
    <vType id="Car25" length="5.00" vClass="passenger" color="green"/>
    <vehicle id="Flow25.0" type="Car25" depart="0.00" fromTaz="7782558678" toTaz="7782558675">
        <route edges="196961215#0 196961215#2 288878926#0 593849715 49073272#0 593847702#3 593849721 49073274 593852345#0 196961379#0"/>
    </vehicle>
    <vType id="Car26" length="5.00" vClass="passenger" color="green"/>
    <vehicle id="Flow26.0" type="Car26" depart="0.00" fromTaz="cluster619136880_619136881_cluster_4510442270_5296993511_5296993513_619136931_#1more" toTaz="cluster619136899_619136900_cluster_619136929_619136942">
        <route edges="910567294"/>
    </vehicle>
    <vType id="Car27" length="5.00" vClass="passenger" color="green"/>
    <vehicle id="Flow27.0" type="Car27" depart="0.00" fromTaz="3196998943" toTaz="cluster_9383263990_9383263991_9383263992_9383263993">
        <route edges="360851262#0 594658762#0 263217603#0"/>
    </vehicle>
    <vType id="Car28" length="5.00" vClass="passenger" color="green"/>
    <vehicle id="Flow28.0" type="Car28" depart="0.00" fromTaz="3092676101" toTaz="cluster_623980090_623980094">
        <route edges="268564473#0 288878927"/>
    </vehicle>
    <vType id="Car29" length="5.00" vClass="passenger" color="green"/>
    <vehicle id="Flow29.0" type="Car29" depart="0.00" fromTaz="2013717680" toTaz="1973482489">
        <route edges="-186602412#3"/>
    </vehicle>
    <vType id="Car3" length="5.00" vClass="passenger" color="green"/>
    <vehicle id="Flow3.0" type="Car3" depart="0.00" fromTaz="cluster619136899_619136900_cluster_619136929_619136942" toTaz="2013717680">
        <route edges="353392316#0 238526531#0 506322848#0 506322841#1 182336886 30620492#1 506322842#0 506322846#0 186602412#0"/>
    </vehicle>
    <vType id="Car30" length="5.00" vClass="passenger" color="green"/>
    <vehicle id="Flow30.0" type="Car30" depart="0.00" fromTaz="3086736515" toTaz="5664237422">
        <route edges="593852343"/>
    </vehicle>
    <vType id="Car31" length="5.00" vClass="passenger" color="green"/>
    <vehicle id="Flow31.0" type="Car31" depart="0.00" fromTaz="2664674480" toTaz="2664674489">
        <route edges="51289045#5 51289045#7"/>
    </vehicle>
    <vType id="Car4" length="5.00" vClass="passenger" color="green"/>
    <vehicle id="Flow4.0" type="Car4" depart="0.00" fromTaz="cluster_9383263990_9383263991_9383263992_9383263993" toTaz="2664674489">
        <route edges="506322844#0 263217604#0 360843888 260881642#0"/>
    </vehicle>
    <vType id="Car5" length="5.00" vClass="passenger" color="green"/>
    <vehicle id="Flow5.0" type="Car5" depart="0.00" fromTaz="cluster_2528018119_655375236" toTaz="6252193077">
        <route edges="182334378#0 1068440004#1 593847702#0 593847702#3 593849718#0"/>
    </vehicle>
    <vType id="Car6" length="5.00" vClass="passenger" color="green"/>
    <vehicle id="Flow6.0" type="Car6" depart="0.00" fromTaz="2081945236" toTaz="3139323041">
        <route edges="198001764#0 182336887#2"/>
    </vehicle>
    <vType id="Car7" length="5.00" vClass="passenger" color="green"/>
    <vehicle id="Flow7.0" type="Car7" depart="0.00" fromTaz="cluster_9383263990_9383263991_9383263992_9383263993" toTaz="1926948228">
        <route edges="506322841#1 198001764#0 261898534"/>
    </vehicle>
    <vType id="Car8" length="5.00" vClass="passenger" color="green"/>
    <vehicle id="Flow8.0" type="Car8" depart="0.00" fromTaz="622618144" toTaz="3431431576">
        <route edges="593852346 593849711#0"/>
    </vehicle>
    <vType id="Car9" length="5.00" vClass="passenger" color="green"/>
    <vehicle id="Flow9.0" type="Car9" depart="0.00" fromTaz="3086736518" toTaz="cluster655375336_end_0_655375336_end_1_655375336_end_10_655375336_end_11_#8more">
        <route edges="E0"/>
    </vehicle>
    <vehicle id="Flow26.1" type="Car26" depart="1.28" fromTaz="cluster619136880_619136881_cluster_4510442270_5296993511_5296993513_619136931_#1more" toTaz="cluster619136899_619136900_cluster_619136929_619136942">
        <route edges="910567294"/>
    </vehicle>
    <vehicle id="Flow5.1" type="Car5" depart="1.37" fromTaz="cluster_2528018119_655375236" toTaz="6252193077">
        <route edges="-593847703#3 593847702#0 593847702#3 593849718#0"/>
    </vehicle>
    <vehicle id="Flow3.1" type="Car3" depart="1.38" fromTaz="cluster619136899_619136900_cluster_619136929_619136942" toTaz="2013717680">
        <route edges="353392316#0 238526531#0 506322848#0 506322844#0 -300077497#8 35274074#0 506322846#0 186602412#0"/>
    </vehicle>
    <vehicle id="Flow4.1" type="Car4" depart="1.75" fromTaz="cluster_9383263990_9383263991_9383263992_9383263993" toTaz="2664674489">
        <route edges="506322844#0 -300077497#8 -300077497#5 182334378#0 232003903#0 51289045#1 51289045#3 51289045#4 51289045#5 51289045#7"/>
    </vehicle>
    <vehicle id="Flow10.1" type="Car10" depart="1.83" fromTaz="622618015" toTaz="622618015">
        <route edges="-593849724 49073272#0 593847702#3 593849721"/>
    </vehicle>
    <vehicle id="Flow15.1" type="Car15" depart="2.07" fromTaz="655375232" toTaz="cluster_2038168688_655375573">
        <route edges="593847701 593847705 593847703#0 300077497#0 35274074#0"/>
    </vehicle>
    <vehicle id="Flow27.1" type="Car27" depart="2.34" fromTaz="3196998943" toTaz="cluster_9383263990_9383263991_9383263992_9383263993">
        <route edges="360851262#0 594658762#0 263217603#0"/>
    </vehicle>
    <vehicle id="Flow26.2" type="Car26" depart="2.56" fromTaz="cluster619136880_619136881_cluster_4510442270_5296993511_5296993513_619136931_#1more" toTaz="cluster619136899_619136900_cluster_619136929_619136942">
        <route edges="910567294"/>
    </vehicle>
    <vehicle id="Flow8.1" type="Car8" depart="2.70" fromTaz="622618144" toTaz="3431431576">
        <route edges="593852346 593849711#0"/>
    </vehicle>
    <vehicle id="Flow5.2" type="Car5" depart="2.74" fromTaz="cluster_2528018119_655375236" toTaz="6252193077">
        <route edges="182334378#0 1068440004#1 593847702#0 593847702#3 593849718#0"/>
    </vehicle>
    <vehicle id="Flow3.2" type="Car3" depart="2.76" fromTaz="cluster619136899_619136900_cluster_619136929_619136942" toTaz="2013717680">
        <route edges="353392316#0 238526531#0 506322848#0 506322844#0 -300077497#8 35274074#0 506322846#0 186602412#0"/>
    </vehicle>
    <vehicle id="Flow14.1" type="Car14" depart="3.33" fromTaz="cluster_5372642442_631668976_631668981_631669076" toTaz="2690921409">
        <route edges="506322851#0"/>
    </vehicle>
    <vehicle id="Flow2.1" type="Car2" depart="3.49" fromTaz="3208478128" toTaz="3208478132">
        <route edges="314800955"/>
    </vehicle>
    <vehicle id="Flow4.2" type="Car4" depart="3.51" fromTaz="cluster_9383263990_9383263991_9383263992_9383263993" toTaz="2664674489">
        <route edges="506322844#0 -300077497#8 -300077497#5 182334378#0 232003903#0 51289045#1 51289045#3 51289045#4 51289045#5 51289045#7"/>
    </vehicle>
    <vehicle id="Flow1.1" type="Car1" depart="3.61" fromTaz="cluster_2038168688_655375573" toTaz="3086736518">
        <route edges="-35274074#2 -300077497#5 182334378#0 -E0"/>
    </vehicle>
    <vehicle id="Flow10.2" type="Car10" depart="3.66" fromTaz="622618015" toTaz="622618015">
        <route edges="49073274 593852346 593849715 593849724"/>
    </vehicle>
    <vehicle id="Flow17.1" type="Car17" depart="3.80" fromTaz="631668818" toTaz="2013717678">
        <route edges="420578931#0 420578931#1 506322851#2 506322853#0 668037874 196961377#0 -360018417 49073272#4 353392316#0 288135628#0"/>
    </vehicle>
    <vehicle id="Flow26.3" type="Car26" depart="3.85" fromTaz="cluster619136880_619136881_cluster_4510442270_5296993511_5296993513_619136931_#1more" toTaz="cluster619136899_619136900_cluster_619136929_619136942">
        <route edges="910567294"/>
    </vehicle>
    <vehicle id="Flow5.3" type="Car5" depart="4.11" fromTaz="cluster_2528018119_655375236" toTaz="6252193077">
        <route edges="-593847703#3 593847702#0 593847702#3 593849718#0"/>
    </vehicle>
    <vehicle id="Flow15.2" type="Car15" depart="4.14" fromTaz="655375232" toTaz="cluster_2038168688_655375573">
        <route edges="593847701 593847705 593847703#0 300077497#0 35274074#0"/>
    </vehicle>
    <vehicle id="Flow3.3" type="Car3" depart="4.15" fromTaz="cluster619136899_619136900_cluster_619136929_619136942" toTaz="2013717680">
        <route edges="353392316#0 288135626#0 1068234499#0 300077497#0 35274074#0 506322846#0 186602412#0"/>
    </vehicle>
    <vehicle id="Flow27.2" type="Car27" depart="4.69" fromTaz="3196998943" toTaz="cluster_9383263990_9383263991_9383263992_9383263993">
        <route edges="360851262#0 594658762#0 263217603#0"/>
    </vehicle>
    <vehicle id="Flow9.1" type="Car9" depart="4.92" fromTaz="3086736518" toTaz="cluster655375336_end_0_655375336_end_1_655375336_end_10_655375336_end_11_#8more">
        <route edges="E0"/>
    </vehicle>
    <vehicle id="Flow26.4" type="Car26" depart="5.13" fromTaz="cluster619136880_619136881_cluster_4510442270_5296993511_5296993513_619136931_#1more" toTaz="cluster619136899_619136900_cluster_619136929_619136942">
        <route edges="910567294"/>
    </vehicle>
    <vehicle id="Flow4.3" type="Car4" depart="5.26" fromTaz="cluster_9383263990_9383263991_9383263992_9383263993" toTaz="2664674489">
        <route edges="506322844#0 263217604#0 360843888 260881642#0"/>
    </vehicle>
    <vehicle id="Flow8.2" type="Car8" depart="5.40" fromTaz="622618144" toTaz="3431431576">
        <route edges="593852346 593849711#0"/>
    </vehicle>
    <vehicle id="Flow5.4" type="Car5" depart="5.48" fromTaz="cluster_2528018119_655375236" toTaz="6252193077">
        <route edges="-593847703#3 593847702#0 593847702#3 593849718#0"/>
    </vehicle>
    <vehicle id="Flow10.3" type="Car10" depart="5.49" fromTaz="622618015" toTaz="622618015">
        <route edges="49073274 593852346 593849715 593849724"/>
    </vehicle>
    <vehicle id="Flow3.4" type="Car3" depart="5.53" fromTaz="cluster619136899_619136900_cluster_619136929_619136942" toTaz="2013717680">
        <route edges="353392316#0 288135626#0 1068234499#0 300077497#0 35274074#0 506322846#0 186602412#0"/>
    </vehicle>
    <vehicle id="Flow22.1" type="Car22" depart="5.77" fromTaz="cluster_3431431575_4777363357_655375231_6982059025" toTaz="655375232">
        <route edges="51362429#0"/>
    </vehicle>
    <vehicle id="Flow12.1" type="Car12" depart="5.88" fromTaz="cluster_9383263990_9383263991_9383263992_9383263993" toTaz="655375241">
        <route edges="506322840#0"/>
    </vehicle>
    <vehicle id="Flow15.3" type="Car15" depart="6.20" fromTaz="655375232" toTaz="cluster_2038168688_655375573">
        <route edges="593847701 593847705 593847703#0 300077497#0 35274074#0"/>
    </vehicle>
    <vehicle id="Flow7.1" type="Car7" depart="6.25" fromTaz="cluster_9383263990_9383263991_9383263992_9383263993" toTaz="1926948228">
        <route edges="506322841#1 198001764#0 261898534"/>
    </vehicle>
    <vehicle id="Flow26.5" type="Car26" depart="6.41" fromTaz="cluster619136880_619136881_cluster_4510442270_5296993511_5296993513_619136931_#1more" toTaz="cluster619136899_619136900_cluster_619136929_619136942">
        <route edges="910567294"/>
    </vehicle>
    <vehicle id="Flow14.2" type="Car14" depart="6.67" fromTaz="cluster_5372642442_631668976_631668981_631669076" toTaz="2690921409">
        <route edges="506322851#0"/>
    </vehicle>
    <vehicle id="Flow5.5" type="Car5" depart="6.85" fromTaz="cluster_2528018119_655375236" toTaz="6252193077">
        <route edges="182334378#0 1068440004#1 593847702#0 593847702#3 593849718#0"/>
    </vehicle>
    <vehicle id="Flow3.5" type="Car3" depart="6.91" fromTaz="cluster619136899_619136900_cluster_619136929_619136942" toTaz="2013717680">
        <route edges="668037874 196961377#0 196961377#3 593849721 -593849724 -593847704#2 593847705 593847703#0 300077497#0 35274074#0 506322846#0 186602412#0"/>
    </vehicle>
    <vehicle id="Flow2.2" type="Car2" depart="6.98" fromTaz="3208478128" toTaz="3208478132">
        <route edges="314800955"/>
    </vehicle>
    <vehicle id="Flow4.4" type="Car4" depart="7.02" fromTaz="cluster_9383263990_9383263991_9383263992_9383263993" toTaz="2664674489">
        <route edges="506322844#0 -300077497#8 -300077497#5 182334378#0 232003903#0 51289045#1 51289045#3 51289045#4 51289045#5 51289045#7"/>
    </vehicle>
    <vehicle id="Flow27.3" type="Car27" depart="7.03" fromTaz="3196998943" toTaz="cluster_9383263990_9383263991_9383263992_9383263993">
        <route edges="360851262#0 594658762#0 263217603#0"/>
    </vehicle>
    <vehicle id="Flow1.2" type="Car1" depart="7.23" fromTaz="cluster_2038168688_655375573" toTaz="3086736518">
        <route edges="-35274074#2 -300077497#5 -593847703#3 -593847705"/>
    </vehicle>
    <vehicle id="Flow10.4" type="Car10" depart="7.32" fromTaz="622618015" toTaz="622618015">
        <route edges="49073274 593852346 593849715 593849724"/>
    </vehicle>
    <vehicle id="Flow0.1" type="Car0" depart="7.50" fromTaz="cluster3086736522_655375108_655375247_655375401_#1more" toTaz="3196998953">
        <route edges="303647015#0"/>
    </vehicle>
    <vehicle id="Flow17.2" type="Car17" depart="7.59" fromTaz="631668818" toTaz="2013717678">
        <route edges="49695733#2 1068234498#0 238526531#0 -35274074#2 -300077497#5 182334379#0 288135628#0"/>
    </vehicle>
    <vehicle id="Flow26.6" type="Car26" depart="7.69" fromTaz="cluster619136880_619136881_cluster_4510442270_5296993511_5296993513_619136931_#1more" toTaz="cluster619136899_619136900_cluster_619136929_619136942">
        <route edges="910567294"/>
    </vehicle>
    <vehicle id="Flow8.3" type="Car8" depart="8.11" fromTaz="622618144" toTaz="3431431576">
        <route edges="593852346 593849711#0"/>
    </vehicle>
    <vehicle id="Flow5.6" type="Car5" depart="8.21" fromTaz="cluster_2528018119_655375236" toTaz="6252193077">
        <route edges="-593847703#3 -593847705 593847704#0 49073272#0 593847702#3 593849718#0"/>
    </vehicle>
    <vehicle id="Flow15.4" type="Car15" depart="8.27" fromTaz="655375232" toTaz="cluster_2038168688_655375573">
        <route edges="593847701 593847705 593847703#0 300077497#0 35274074#0"/>
    </vehicle>
    <vehicle id="Flow3.6" type="Car3" depart="8.29" fromTaz="cluster619136899_619136900_cluster_619136929_619136942" toTaz="2013717680">
        <route edges="668037874 196961377#0 196961377#3 593849721 49073274 593852346 593849711#0 593849711#2 593847701 593847705 593847703#0 300077497#0 35274074#0 506322846#0 186602412#0"/>
    </vehicle>
    <vehicle id="Flow6.1" type="Car6" depart="8.33" fromTaz="2081945236" toTaz="3139323041">
        <route edges="198001764#0 182336887#2"/>
    </vehicle>
    <vehicle id="Flow4.5" type="Car4" depart="8.77" fromTaz="cluster_9383263990_9383263991_9383263992_9383263993" toTaz="2664674489">
        <route edges="506322844#0 263217604#0 360843888 260881642#0"/>
    </vehicle>
    <vehicle id="Flow21.1" type="Car21" depart="8.82" fromTaz="cluster655375336_end_0_655375336_end_1_655375336_end_10_655375336_end_11_#8more" toTaz="cluster_2528018119_655375236">
        <route edges="49695736#0"/>
    </vehicle>
    <vehicle id="Flow26.7" type="Car26" depart="8.97" fromTaz="cluster619136880_619136881_cluster_4510442270_5296993511_5296993513_619136931_#1more" toTaz="cluster619136899_619136900_cluster_619136929_619136942">
        <route edges="910567294"/>
    </vehicle>
    <vehicle id="Flow10.5" type="Car10" depart="9.15" fromTaz="622618015" toTaz="622618015">
        <route edges="-593849724 49073272#0 593847702#3 593849721"/>
    </vehicle>
    <vehicle id="Flow27.4" type="Car27" depart="9.37" fromTaz="3196998943" toTaz="cluster_9383263990_9383263991_9383263992_9383263993">
        <route edges="360851262#0 594658762#0 263217603#0"/>
    </vehicle>
    <vehicle id="Flow5.7" type="Car5" depart="9.58" fromTaz="cluster_2528018119_655375236" toTaz="6252193077">
        <route edges="-593847703#3 593847702#0 593847702#3 593849718#0"/>
    </vehicle>
    <vehicle id="Flow3.7" type="Car3" depart="9.67" fromTaz="cluster619136899_619136900_cluster_619136929_619136942" toTaz="2013717680">
        <route edges="353392316#0 238526531#0 506322848#0 506322844#0 -300077497#8 35274074#0 506322846#0 186602412#0"/>
    </vehicle>
    <vehicle id="Flow9.2" type="Car9" depart="9.84" fromTaz="3086736518" toTaz="cluster655375336_end_0_655375336_end_1_655375336_end_10_655375336_end_11_#8more">
        <route edges="E0"/>
    </vehicle>
    <vehicle id="Flow14.3" type="Car14" depart="10.00" fromTaz="cluster_5372642442_631668976_631668981_631669076" toTaz="2690921409">
        <route edges="506322851#0"/>
    </vehicle>
    <vehicle id="Flow16.1" type="Car16" depart="10.00" fromTaz="cluster_623980090_623980094" toTaz="2713733789">
        <route edges="196961378#1"/>
    </vehicle>
    <vehicle id="Flow25.1" type="Car25" depart="10.00" fromTaz="7782558678" toTaz="7782558675">
        <route edges="196961215#0 196961215#2 288878926#0 593849715 593849724 49073274 593852345#0 196961379#0"/>
    </vehicle>
    <vehicle id="Flow26.8" type="Car26" depart="10.26" fromTaz="cluster619136880_619136881_cluster_4510442270_5296993511_5296993513_619136931_#1more" toTaz="cluster619136899_619136900_cluster_619136929_619136942">
        <route edges="910567294"/>
    </vehicle>
    <vehicle id="Flow15.5" type="Car15" depart="10.34" fromTaz="655375232" toTaz="cluster_2038168688_655375573">
        <route edges="593847701 593847705 593847703#0 182334379#0 238526531#0"/>
    </vehicle>
    <vehicle id="Flow28.1" type="Car28" depart="10.34" fromTaz="3092676101" toTaz="cluster_623980090_623980094">
        <route edges="268564473#0 288878927"/>
    </vehicle>
    <vehicle id="Flow2.3" type="Car2" depart="10.46" fromTaz="3208478128" toTaz="3208478132">
        <route edges="314800955"/>
    </vehicle>
    <vehicle id="Flow4.6" type="Car4" depart="10.52" fromTaz="cluster_9383263990_9383263991_9383263992_9383263993" toTaz="2664674489">
        <route edges="506322844#0 263217604#0 360843888 260881642#0"/>
    </vehicle>
    <vehicle id="Flow8.4" type="Car8" depart="10.81" fromTaz="622618144" toTaz="3431431576">
        <route edges="593852346 593849711#0"/>
    </vehicle>
    <vehicle id="Flow1.3" type="Car1" depart="10.84" fromTaz="cluster_2038168688_655375573" toTaz="3086736518">
        <route edges="506322846#0 506322846#2 288135626#0 1068234499#0 182334378#0 1068440004#1 -593847705"/>
    </vehicle>
    <vehicle id="Flow5.8" type="Car5" depart="10.95" fromTaz="cluster_2528018119_655375236" toTaz="6252193077">
        <route edges="182334378#0 1068440004#1 593847702#0 593847702#3 593849718#0"/>
    </vehicle>
    <vehicle id="Flow10.6" type="Car10" depart="10.97" fromTaz="622618015" toTaz="622618015">
        <route edges="49073274 593852346 593849715 49073272#0 593847702#3 593849721"/>
    </vehicle>
    <vehicle id="Flow3.8" type="Car3" depart="11.06" fromTaz="cluster619136899_619136900_cluster_619136929_619136942" toTaz="2013717680">
        <route edges="353392316#0 238526531#0 506322848#0 506322844#0 -300077497#8 35274074#0 506322846#0 186602412#0"/>
    </vehicle>
    <vehicle id="Flow23.1" type="Car23" depart="11.11" fromTaz="2749340167" toTaz="cluster_9383263990_9383263991_9383263992_9383263993">
        <route edges="30620492#1"/>
    </vehicle>
    <vehicle id="Flow17.3" type="Car17" depart="11.39" fromTaz="631668818" toTaz="2013717678">
        <route edges="49695733#2 1068234498#0 238526531#0 -35274074#2 -300077497#5 182334379#0 288135628#0"/>
    </vehicle>
    <vehicle id="Flow22.2" type="Car22" depart="11.54" fromTaz="cluster_3431431575_4777363357_655375231_6982059025" toTaz="655375232">
        <route edges="51362429#0"/>
    </vehicle>
    <vehicle id="Flow26.9" type="Car26" depart="11.54" fromTaz="cluster619136880_619136881_cluster_4510442270_5296993511_5296993513_619136931_#1more" toTaz="cluster619136899_619136900_cluster_619136929_619136942">
        <route edges="910567294"/>
    </vehicle>
    <vehicle id="Flow27.5" type="Car27" depart="11.72" fromTaz="3196998943" toTaz="cluster_9383263990_9383263991_9383263992_9383263993">
        <route edges="360851262#0 594658762#0 263217603#0"/>
    </vehicle>
    <vehicle id="Flow12.2" type="Car12" depart="11.76" fromTaz="cluster_9383263990_9383263991_9383263992_9383263993" toTaz="655375241">
        <route edges="506322840#0"/>
    </vehicle>
    <vehicle id="Flow4.7" type="Car4" depart="12.28" fromTaz="cluster_9383263990_9383263991_9383263992_9383263993" toTaz="2664674489">
        <route edges="506322844#0 263217604#0 360843888 260881642#0"/>
    </vehicle>
    <vehicle id="Flow5.9" type="Car5" depart="12.32" fromTaz="cluster_2528018119_655375236" toTaz="6252193077">
        <route edges="-593847703#3 593847702#0 593847702#3 593849718#0"/>
    </vehicle>
    <vehicle id="Flow15.6" type="Car15" depart="12.41" fromTaz="655375232" toTaz="cluster_2038168688_655375573">
        <route edges="593847701 593847705 593847703#0 300077497#0 35274074#0"/>
    </vehicle>
    <vehicle id="Flow3.9" type="Car3" depart="12.44" fromTaz="cluster619136899_619136900_cluster_619136929_619136942" toTaz="2013717680">
        <route edges="353392316#0 238526531#0 506322848#0 506322844#0 -300077497#8 35274074#0 506322846#0 186602412#0"/>
    </vehicle>
    <vehicle id="Flow7.2" type="Car7" depart="12.50" fromTaz="cluster_9383263990_9383263991_9383263992_9383263993" toTaz="1926948228">
        <route edges="506322841#1 198001764#0 261898534"/>
    </vehicle>
    <vehicle id="Flow10.7" type="Car10" depart="12.80" fromTaz="622618015" toTaz="622618015">
        <route edges="49073274 593852346 593849715 593849724"/>
    </vehicle>
    <vehicle id="Flow26.10" type="Car26" depart="12.82" fromTaz="cluster619136880_619136881_cluster_4510442270_5296993511_5296993513_619136931_#1more" toTaz="cluster619136899_619136900_cluster_619136929_619136942">
        <route edges="910567294"/>
    </vehicle>
    <vehicle id="Flow14.4" type="Car14" depart="13.33" fromTaz="cluster_5372642442_631668976_631668981_631669076" toTaz="2690921409">
        <route edges="506322851#0"/>
    </vehicle>
    <vehicle id="Flow8.5" type="Car8" depart="13.51" fromTaz="622618144" toTaz="3431431576">
        <route edges="593852346 593849711#0"/>
    </vehicle>
    <vehicle id="Flow5.10" type="Car5" depart="13.69" fromTaz="cluster_2528018119_655375236" toTaz="6252193077">
        <route edges="-593847703#3 593847702#0 593847702#3 593849718#0"/>
    </vehicle>
    <vehicle id="Flow3.10" type="Car3" depart="13.82" fromTaz="cluster619136899_619136900_cluster_619136929_619136942" toTaz="2013717680">
        <route edges="668037874 196961377#0 196961377#3 593849721 -593849724 -593847704#2 593847705 593847703#0 300077497#0 35274074#0 506322846#0 186602412#0"/>
    </vehicle>
    <vehicle id="Flow2.4" type="Car2" depart="13.95" fromTaz="3208478128" toTaz="3208478132">
        <route edges="314800955"/>
    </vehicle>
    <vehicle id="Flow4.8" type="Car4" depart="14.03" fromTaz="cluster_9383263990_9383263991_9383263992_9383263993" toTaz="2664674489">
        <route edges="506322844#0 263217604#0 360843888 260881642#0"/>
    </vehicle>
    <vehicle id="Flow27.6" type="Car27" depart="14.06" fromTaz="3196998943" toTaz="cluster_9383263990_9383263991_9383263992_9383263993">
        <route edges="360851262#0 594658762#0 263217603#0"/>
    </vehicle>
    <vehicle id="Flow26.11" type="Car26" depart="14.10" fromTaz="cluster619136880_619136881_cluster_4510442270_5296993511_5296993513_619136931_#1more" toTaz="cluster619136899_619136900_cluster_619136929_619136942">
        <route edges="910567294"/>
    </vehicle>
    <vehicle id="Flow1.4" type="Car1" depart="14.46" fromTaz="cluster_2038168688_655375573" toTaz="3086736518">
        <route edges="506322848#0 506322844#0 -300077497#8 -300077497#5 -593847703#3 -593847705"/>
    </vehicle>
    <vehicle id="Flow15.7" type="Car15" depart="14.48" fromTaz="655375232" toTaz="cluster_2038168688_655375573">
        <route edges="593847701 593847705 593847703#0 300077497#0 35274074#0"/>
    </vehicle>
    <vehicle id="Flow10.8" type="Car10" depart="14.63" fromTaz="622618015" toTaz="622618015">
        <route edges="49073274 593852346 593849715 593849724"/>
    </vehicle>
    <vehicle id="Flow9.3" type="Car9" depart="14.75" fromTaz="3086736518" toTaz="cluster655375336_end_0_655375336_end_1_655375336_end_10_655375336_end_11_#8more">