<?xml version="1.0" encoding="UTF-8"?>

<!-- generated on 2026-02-28 11:27:45 by Eclipse SUMO duarouter Version 1.24.0
<duarouterConfiguration xmlns:xsi="http://www.w3.org/2001/XMLSchema-instance" xsi:noNamespaceSchemaLocation="http://sumo.dlr.de/xsd/duarouterConfiguration.xsd">

    <input>
        <net-file value="./data/ntut_network_split.net copy.xml"/>
        <route-files value="./data/final_output.rou.alt.xml"/>
        <junction-taz value="true"/>
    </input>

    <output>
        <output-file value="./data/final_output.rou.xml"/>
        <alternatives-output value="./data/final_output.rou.alt.xml.tmp"/>
    </output>

    <processing>
        <max-alternatives value="3"/>
        <weights.random-factor value="12"/>
    </processing>

    <report>
        <ignore-errors value="true"/>
    </report>

</duarouterConfiguration>
-->

<routes xmlns:xsi="http://www.w3.org/2001/XMLSchema-instance" xsi:noNamespaceSchemaLocation="http://sumo.dlr.de/xsd/routes_file.xsd">
    <vType id="Car0" length="5.00" vClass="passenger" color="green"/>
    <vehicle id="Flow0.0" type="Car0" depart="0.00" fromTaz="cluster_3431431575_4777363357_655375231_6982059025" toTaz="3196998953">
        <routeDistribution last="2">
            <route cost="278.09" probability="0.44159863" edges="484988952#0 -51362430 1068440001 1239087513 593844221#0 1334904386#0 303647015#0"/>
            <route cost="439.77" probability="0.26250645" edges="51362429#0 1068440006#0 1334904386#0 303647015#0"/>
            <route cost="296.57" probability="0.29589492" edges="484988952#0 -51362430 1068440001 1239087513 593844221#0 -594658757#2 303647015#0"/>
        </routeDistribution>
    </vehicle>
    <vType id="Car1" length="5.00" vClass="passenger" color="green"/>
    <vehicle id="Flow1.0" type="Car1" depart="0.00" fromTaz="631668923" toTaz="622618112">
        <routeDistribution last="1">
            <route cost="413.58" probability="0.32294549" edges="1068234498#0 288135626#0 1068234499#0 -593847703#3 593847702#0"/>
            <route cost="453.77" probability="0.33896258" edges="1068234498#0 288135626#0 1068234499#0 182334378#0 1068440004#1 593847702#0"/>
            <route cost="409.49" probability="0.33809194" edges="1068234498#0 288135626#0 1068234499#0 182334378#0 -E0 593847704#0 49073272#0"/>
        </routeDistribution>
    </vehicle>
    <vType id="Car10" length="5.00" vClass="passenger" color="green"/>
    <vehicle id="Flow10.0" type="Car10" depart="0.00" fromTaz="cluster619136880_619136881_cluster_4510442270_5296993511_5296993513_619136931_#1more" toTaz="6252193077">
        <routeDistribution last="0">
            <route cost="189.48" probability="1.00000000" edges="196961377#0 196961377#3 593849718#0"/>
        </routeDistribution>
    </vehicle>
    <vType id="Car11" length="5.00" vClass="passenger" color="green"/>
    <vehicle id="Flow11.0" type="Car11" depart="0.00" fromTaz="cluster_2664674491_655375287_655375288" toTaz="2664674489">
        <routeDistribution last="0">
            <route cost="78.15" probability="1.00000000" edges="260881642#0"/>
        </routeDistribution>
    </vehicle>
    <vType id="Car12" length="5.00" vClass="passenger" color="green"/>
    <vehicle id="Flow12.0" type="Car12" depart="0.00" fromTaz="cluster_9383263990_9383263991_9383263992_9383263993" toTaz="3139323041">
        <routeDistribution last="0">
            <route cost="78.91" probability="0.59005355" edges="506322841#1 198001764#0 182336887#2"/>
            <route cost="94.39" probability="0.40994645" edges="506322841#1 506322841#3 182336887#0 182336887#2"/>
        </routeDistribution>
    </vehicle>
    <vType id="Car13" length="5.00" vClass="passenger" color="green"/>
    <vehicle id="Flow13.0" type="Car13" depart="0.00" fromTaz="cluster_9383263990_9383263991_9383263992_9383263993" toTaz="cluster_9383263990_9383263991_9383263992_9383263993">
        <routeDistribution last="0">
            <route cost="61.34" probability="1.00000000" edges="506322841#1 182336886 30620492#1"/>
        </routeDistribution>
    </vehicle>
    <vType id="Car14" length="5.00" vClass="passenger" color="green"/>
    <vehicle id="Flow14.0" type="Car14" depart="0.00" fromTaz="622618015" toTaz="622618230">
        <routeDistribution last="0">
            <route cost="37.76" probability="1.00000000" edges="49073274 593852346"/>
        </routeDistribution>
    </vehicle>
    <vType id="Car15" length="5.00" vClass="passenger" color="green"/>
    <vehicle id="Flow15.0" type="Car15" depart="0.00" fromTaz="3086736515" toTaz="622618144">
        <routeDistribution last="0">
            <route cost="31.88" probability="0.50019396" edges="593852343 906806086#0"/>
            <route cost="44.03" probability="0.49980604" edges="-49073264#1 49073274"/>
        </routeDistribution>
    </vehicle>
    <vType id="Car16" length="5.00" vClass="passenger" color="green"/>
    <vehicle id="Flow16.0" type="Car16" depart="0.00" fromTaz="cluster619136880_619136881_cluster_4510442270_5296993511_5296993513_619136931_#1more" toTaz="622618165">
        <routeDistribution last="0">
            <route cost="161.68" probability="1.00000000" edges="48794887#0"/>
        </routeDistribution>
    </vehicle>
    <vType id="Car17" length="5.00" vClass="passenger" color="green"/>
    <vehicle id="Flow17.0" type="Car17" depart="0.00" fromTaz="cluster3086736522_655375108_655375247_655375401_#1more" toTaz="cluster655375228_655375240">
        <routeDistribution last="0">
            <route cost="44.58" probability="1.00000000" edges="594658762#0"/>
        </routeDistribution>
    </vehicle>
    <vType id="Car18" length="5.00" vClass="passenger" color="green"/>
    <vehicle id="Flow18.0" type="Car18" depart="0.00" fromTaz="cluster_5372642442_631668976_631668981_631669076" toTaz="2690921409">
        <routeDistribution last="0">
            <route cost="48.29" probability="1.00000000" edges="506322851#0"/>
        </routeDistribution>
    </vehicle>
    <vType id="Car19" length="5.00" vClass="passenger" color="green"/>
    <vehicle id="Flow19.0" type="Car19" depart="0.00" fromTaz="631668818" toTaz="631668923">
        <routeDistribution last="0">
            <route cost="65.54" probability="1.00000000" edges="49695733#2"/>
        </routeDistribution>
    </vehicle>
    <vType id="Car2" length="5.00" vClass="passenger" color="green"/>
    <vehicle id="Flow2.0" type="Car2" depart="0.00" fromTaz="cluster655375228_655375240" toTaz="3208478132">
        <routeDistribution last="1">
            <route cost="234.85" probability="0.52138437" edges="-E1 -300077497#8 -300077497#5 182334378#0 232003903#0 51289045#1"/>
            <route cost="238.40" probability="0.47861563" edges="-E1 263217604#0 360843888 244450512#4 314800955"/>
        </routeDistribution>
    </vehicle>
    <vType id="Car20" length="5.00" vClass="passenger" color="green"/>
    <vehicle id="Flow20.0" type="Car20" depart="0.00" fromTaz="3208478132" toTaz="656132498">
        <routeDistribution last="0">
            <route cost="78.51" probability="0.62211865" edges="51289045#3 51392936#0"/>
            <route cost="152.30" probability="0.37788135" edges="51289045#3 51289045#4 51289045#5 -260882327 -545977624#2 593842812#0"/>
        </routeDistribution>
    </vehicle>
    <vType id="Car21" length="5.00" vClass="passenger" color="green"/>
    <vehicle id="Flow21.0" type="Car21" depart="0.00" fromTaz="3208478128" toTaz="3208478132">
        <routeDistribution last="0">
            <route cost="1.62" probability="1.00000000" edges="314800955"/>
        </routeDistribution>
    </vehicle>
    <vType id="Car22" length="5.00" vClass="passenger" color="green"/>
    <vehicle id="Flow22.0" type="Car22" depart="0.00" fromTaz="cluster_623980090_623980094" toTaz="7782558675">
        <routeDistribution last="0">
            <route cost="41.76" probability="1.00000000" edges="196961379#0"/>
        </routeDistribution>
    </vehicle>
    <vType id="Car23" length="5.00" vClass="passenger" color="green"/>
    <vehicle id="Flow23.0" type="Car23" depart="0.00" fromTaz="622618197" toTaz="622618015">
        <routeDistribution last="0">
            <route cost="0.20" probability="1.00000000" edges="593849721"/>
        </routeDistribution>
    </vehicle>
    <vType id="Car24" length="5.00" vClass="passenger" color="green"/>
    <vehicle id="Flow24.0" type="Car24" depart="0.00" fromTaz="655375286" toTaz="cluster655375336_end_0_655375336_end_1_655375336_end_10_655375336_end_11_#8more">
        <routeDistribution last="1">
            <route cost="162.10" probability="0.35037467" edges="244450512#0 244450512#1 244450512#4 244450512#5 593844221#0"/>
            <route cost="151.99" probability="0.32354313" edges="244450512#0 51362431 594658757#0"/>
            <route cost="179.44" probability="0.32608220" edges="244450512#0 51362431 594658760#0"/>
        </routeDistribution>
    </vehicle>
    <vType id="Car25" length="5.00" vClass="passenger" color="green"/>
    <vehicle id="Flow25.0" type="Car25" depart="0.00" fromTaz="622618112" toTaz="622618197">
        <routeDistribution last="0">
            <route cost="14.10" probability="1.00000000" edges="593847702#3"/>
        </routeDistribution>
    </vehicle>
    <vType id="Car26" length="5.00" vClass="passenger" color="green"/>
    <vehicle id="Flow26.0" type="Car26" depart="0.00" fromTaz="3092676101" toTaz="cluster_623980090_623980094">
        <routeDistribution last="0">
            <route cost="48.11" probability="1.00000000" edges="268564473#0 288878927"/>
        </routeDistribution>
    </vehicle>
    <vType id="Car27" length="5.00" vClass="passenger" color="green"/>
    <vehicle id="Flow27.0" type="Car27" depart="0.00" fromTaz="2081945236" toTaz="3139322031">
        <routeDistribution last="0">
            <route cost="2.33" probability="1.00000000" edges="506322841#3"/>
        </routeDistribution>
    </vehicle>
    <vType id="Car3" length="5.00" vClass="passenger" color="green"/>
    <vehicle id="Flow3.0" type="Car3" depart="0.00" fromTaz="cluster655375336_end_0_655375336_end_1_655375336_end_10_655375336_end_11_#8more" toTaz="656132476">
        <routeDistribution last="0">
            <route cost="120.45" probability="0.44815959" edges="232003903#0 593844216#0 545977624#0"/>
            <route cost="123.85" probability="0.55184041" edges="232003903#0 51289045#1 51289045#3 51289045#4 51289045#5 -260882327"/>
        </routeDistribution>
    </vehicle>
    <vType id="Car4" length="5.00" vClass="passenger" color="green"/>
    <vehicle id="Flow4.0" type="Car4" depart="0.00" fromTaz="622618230" toTaz="2013717678">
        <routeDistribution last="1">
            <route cost="599.16" probability="0.42292419" edges="593849715 49073272#0 49073272#1 49073272#3 49073272#4 353392316#0 288135628#0"/>
            <route cost="387.14" probability="0.57707581" edges="593849711#0 593849711#2 593847701 593847705 593847703#0 182334379#0 288135628#0"/>
        </routeDistribution>
    </vehicle>
    <vType id="Car5" length="5.00" vClass="passenger" color="green"/>
    <vehicle id="Flow5.0" type="Car5" depart="0.00" fromTaz="7782558678" toTaz="3431431576">
        <routeDistribution last="0">
            <route cost="147.56" probability="0.47885224" edges="196961215#0 196961215#2 241518668#0 336063376#0"/>
            <route cost="123.98" probability="0.52114776" edges="196961215#0 196961215#2 288878926#0 593849711#0"/>
        </routeDistribution>
    </vehicle>
    <vType id="Car6" length="5.00" vClass="passenger" color="green"/>
    <vehicle id="Flow6.0" type="Car6" depart="0.00" fromTaz="6251747844" toTaz="cluster_5372642442_631668976_631668981_631669076">
        <routeDistribution last="0">
            <route cost="323.59" probability="1.00000000" edges="-260882327 -545977624#2 593842812#0 593842812#2 593844221#0 49695736#0 182334379#0"/>
        </routeDistribution>
    </vehicle>
    <vType id="Car7" length="5.00" vClass="passenger" color="green"/>
    <vehicle id="Flow7.0" type="Car7" depart="0.00" fromTaz="631668821" toTaz="631668821">
        <routeDistribution last="0">
            <route cost="112.97" probability="1.00000000" edges="-49695726 49695726"/>
        </routeDistribution>
    </vehicle>
    <vType id="Car8" length="5.00" vClass="passenger" color="green"/>
    <vehicle id="Flow8.0" type="Car8" depart="0.00" fromTaz="622618144" toTaz="2713733789">
        <routeDistribution last="0">
            <route cost="210.71" probability="1.00000000" edges="593852345#0 196961378#1"/>
        </routeDistribution>
    </vehicle>
    <vType id="Car9" length="5.00" vClass="passenger" color="green"/>
    <vehicle id="Flow9.0" type="Car9" depart="0.00" fromTaz="2760755470" toTaz="655375241">
        <routeDistribution last="0">
            <route cost="79.00" probability="1.00000000" edges="30620492#0 30620492#1 506322840#0"/>
        </routeDistribution>
    </vehicle>
    <vehicle id="Flow18.1" type="Car18" depart="15.00" fromTaz="cluster_5372642442_631668976_631668981_631669076" toTaz="2690921409">
        <routeDistribution last="0">
            <route cost="49.98" probability="1.00000000" edges="506322851#0"/>
        </routeDistribution>
    </vehicle>
    <vehicle id="Flow10.1" type="Car10" depart="25.00" fromTaz="cluster619136880_619136881_cluster_4510442270_5296993511_5296993513_619136931_#1more" toTaz="6252193077">
        <routeDistribution last="0">
            <route cost="189.88" probability="1.00000000" edges="196961377#0 196961377#3 593849718#0"/>
        </routeDistribution>
    </vehicle>
    <vehicle id="Flow2.1" type="Car2" depart="25.00" fromTaz="cluster655375228_655375240" toTaz="3208478132">
        <routeDistribution last="0">
            <route cost="270.64" probability="0.49270715" edges="-E1 -300077497#8 -300077497#5 182334378#0 232003903#0 51289045#1"/>
            <route cost="230.64" probability="0.50729285" edges="-E1 263217604#0 360843888 244450512#4 314800955"/>
        </routeDistribution>
    </vehicle>
    <vehicle id="Flow4.1" type="Car4" depart="25.00" fromTaz="622618230" toTaz="2013717678">
        <routeDistribution last="0">
            <route cost="331.29" probability="0.33586518" edges="593849715 49073272#0 49073272#1 49073272#3 49073272#4 353392316#0 288135628#0"/>
            <route cost="337.87" probability="0.35360106" edges="593849711#0 593849711#2 593847701 593847705 593847703#0 182334379#0 288135628#0"/>
            <route cost="438.60" probability="0.31053376" edges="593849715 -593847704#2 593847705 593847703#0 182334379#0 288135628#0"/>
        </routeDistribution>
    </vehicle>
    <vehicle id="Flow7.1" type="Car7" depart="25.00" fromTaz="631668821" toTaz="631668821">
        <routeDistribution last="0">
            <route cost="139.39" probability="1.00000000" edges="-49695726 49695726"/>
        </routeDistribution>
    </vehicle>
    <vehicle id="Flow5.1" type="Car5" depart="27.27" fromTaz="7782558678" toTaz="3431431576">
        <routeDistribution last="0">
            <route cost="207.77" probability="1.00000000" edges="196961215#0 196961215#2 241518668#0 336063376#0"/>
        </routeDistribution>
    </vehicle>
    <vehicle id="Flow16.1" type="Car16" depart="30.00" fromTaz="cluster619136880_619136881_cluster_4510442270_5296993511_5296993513_619136931_#1more" toTaz="622618165">
        <routeDistribution last="0">
            <route cost="98.52" probability="1.00000000" edges="48794887#0"/>
        </routeDistribution>
    </vehicle>
    <vehicle id="Flow18.2" type="Car18" depart="30.00" fromTaz="cluster_5372642442_631668976_631668981_631669076" toTaz="2690921409">
        <routeDistribution last="0">
            <route cost="73.58" probability="1.00000000" edges="506322851#0"/>
        </routeDistribution>
    </vehicle>
    <vehicle id="Flow23.1" type="Car23" depart="33.33" fromTaz="622618197" toTaz="622618015">
        <routeDistribution last="0">
            <route cost="0.16" probability="1.00000000" edges="593849721"/>
        </routeDistribution>
    </vehicle>
    <vehicle id="Flow0.1" type="Car0" depart="37.50" fromTaz="cluster_3431431575_4777363357_655375231_6982059025" toTaz="3196998953">
        <routeDistribution last="1">
            <route cost="343.00" probability="0.34122865" edges="51362429#0 1068440006#0 1334904386#0 303647015#0"/>
            <route cost="394.70" probability="0.33482608" edges="51362429#0 593847701 593847705 593847703#0 182334378#0 -594658757#2 303647015#0"/>
            <route cost="346.10" probability="0.32394527" edges="51362429#0 593847701 593847705 593847703#0 182334378#0 1334904386#0 303647015#0"/>
        </routeDistribution>
    </vehicle>
    <vehicle id="Flow13.1" type="Car13" depart="37.50" fromTaz="cluster_9383263990_9383263991_9383263992_9383263993" toTaz="cluster_9383263990_9383263991_9383263992_9383263993">
        <routeDistribution last="0">
            <route cost="81.13" probability="1.00000000" edges="506322841#1 182336886 30620492#1"/>
        </routeDistribution>
    </vehicle>
    <vehicle id="Flow1.1" type="Car1" depart="42.86" fromTaz="631668923" toTaz="622618112">
        <routeDistribution last="1">
            <route cost="302.03" probability="0.34680328" edges="1068234498#0 288135626#0 1068234499#0 -593847703#3 -593847705 593847704#0 49073272#0"/>
            <route cost="326.71" probability="0.34177060" edges="1068234498#0 288135626#0 1068234499#0 182334378#0 -E0 593847704#0 49073272#0"/>
            <route cost="416.75" probability="0.31142612" edges="1068234498#0 288135626#0 1068234499#0 182334378#0 1068440004#1 593847702#0"/>
        </routeDistribution>
    </vehicle>
    <vehicle id="Flow14.1" type="Car14" depart="42.86" fromTaz="622618015" toTaz="622618230">
        <routeDistribution last="0">
            <route cost="29.63" probability="1.00000000" edges="49073274 593852346"/>
        </routeDistribution>
    </vehicle>
    <vehicle id="Flow19.1" type="Car19" depart="42.86" fromTaz="631668818" toTaz="631668923">
        <routeDistribution last="0">
            <route cost="66.78" probability="1.00000000" edges="49695733#2"/>
        </routeDistribution>
    </vehicle>
    <vehicle id="Flow18.3" type="Car18" depart="45.00" fromTaz="cluster_5372642442_631668976_631668981_631669076" toTaz="2690921409">
        <routeDistribution last="0">
            <route cost="141.72" probability="1.00000000" edges="506322851#0"/>
        </routeDistribution>
    </vehicle>
    <vehicle id="Flow10.2" type="Car10" depart="50.00" fromTaz="cluster619136880_619136881_cluster_4510442270_5296993511_5296993513_619136931_#1more" toTaz="6252193077">
        <routeDistribution last="0">
            <route cost="288.65" probability="1.00000000" edges="196961377#0 196961377#3 593849718#0"/>
        </routeDistribution>
    </vehicle>
    <vehicle id="Flow2.2" type="Car2" depart="50.00" fromTaz="cluster655375228_655375240" toTaz="3208478132">
        <routeDistribution last="1">
            <route cost="255.80" probability="0.48959019" edges="-E1 -300077497#8 -300077497#5 182334378#0 232003903#0 51289045#1"/>
            <route cost="205.60" probability="0.51040981" edges="-E1 263217604#0 360843888 244450512#4 314800955"/>
        </routeDistribution>
    </vehicle>
    <vehicle id="Flow4.2" type="Car4" depart="50.00" fromTaz="622618230" toTaz="2013717678">
        <routeDistribution last="1">
            <route cost="410.19" probability="0.51760747" edges="593849715 -593847704#2 593847705 593847703#0 182334379#0 288135628#0"/>
            <route cost="296.35" probability="0.48239253" edges="593849715 49073272#0 49073272#1 49073272#3 49073272#4 353392316#0 288135628#0"/>
        </routeDistribution>
    </vehicle>
    <vehicle id="Flow6.1" type="Car6" depart="50.00" fromTaz="6251747844" toTaz="cluster_5372642442_631668976_631668981_631669076">
        <routeDistribution last="0">
            <route cost="374.97" probability="1.00000000" edges="-260882327 -545977624#2 593842812#0 593842812#2 593844221#0 49695736#0 182334379#0"/>
        </routeDistribution>
    </vehicle>
    <vehicle id="Flow7.2" type="Car7" depart="50.00" fromTaz="631668821" toTaz="631668821">
        <routeDistribution last="0">
            <route cost="118.57" probability="1.00000000" edges="-49695726 49695726"/>
        </routeDistribution>
    </vehicle>
    <vehicle id="Flow5.2" type="Car5" depart="54.54" fromTaz="7782558678" toTaz="3431431576">
        <routeDistribution last="1">
            <route cost="167.47" probability="0.48689205" edges="196961215#0 196961215#2 288878926#0 593849711#0"/>
            <route cost="178.14" probability="0.51310795" edges="196961215#0 196961215#2 241518668#0 336063376#0"/>
        </routeDistribution>
    </vehicle>
    <vehicle id="Flow12.1" type="Car12" depart="60.00" fromTaz="cluster_9383263990_9383263991_9383263992_9383263993" toTaz="3139323041">
        <routeDistribution last="0">
            <route cost="92.27" probability="1.00000000" edges="506322841#1 198001764#0 182336887#2"/>
        </routeDistribution>
    </vehicle>
    <vehicle id="Flow16.2" type="Car16" depart="60.00" fromTaz="cluster619136880_619136881_cluster_4510442270_5296993511_5296993513_619136931_#1more" toTaz="622618165">
        <routeDistribution last="0">
            <route cost="191.99" probability="1.00000000" edges="48794887#0"/>
        </routeDistribution>
    </vehicle>
    <vehicle id="Flow18.4" type="Car18" depart="60.00" fromTaz="cluster_5372642442_631668976_631668981_631669076" toTaz="2690921409">
        <routeDistribution last="0">
            <route cost="22.99" probability="1.00000000" edges="506322851#0"/>
        </routeDistribution>
    </vehicle>
    <vehicle id="Flow3.1" type="Car3" depart="60.00" fromTaz="cluster655375336_end_0_655375336_end_1_655375336_end_10_655375336_end_11_#8more" toTaz="656132476">
        <routeDistribution last="1">
            <route cost="150.20" probability="0.53153485" edges="232003903#0 51289045#1 51289045#3 51289045#4 51289045#5 -260882327"/>
            <route cost="182.12" probability="0.46846515" edges="232003903#0 593844216#0 545977624#0"/>
        </routeDistribution>
    </vehicle>
    <vehicle id="Flow23.2" type="Car23" depart="66.67" fromTaz="622618197" toTaz="622618015">
        <routeDistribution last="0">
            <route cost="0.07" probability="1.00000000" edges="593849721"/>
        </routeDistribution>
    </vehicle>
    <vehicle id="Flow0.2" type="Car0" depart="75.00" fromTaz="cluster_3431431575_4777363357_655375231_6982059025" toTaz="3196998953">
        <routeDistribution last="0">
            <route cost="387.74" probability="0.50982291" edges="51362429#0 593847701 E0 -594658757#2 303647015#0"/>
            <route cost="336.97" probability="0.49017709" edges="51362429#0 1068440006#0 -594658757#2 303647015#0"/>
        </routeDistribution>
    </vehicle>
    <vehicle id="Flow10.3" type="Car10" depart="75.00" fromTaz="cluster619136880_619136881_cluster_4510442270_5296993511_5296993513_619136931_#1more" toTaz="6252193077">
        <routeDistribution last="0">
            <route cost="146.63" probability="1.00000000" edges="196961377#0 196961377#3 593849718#0"/>
        </routeDistribution>
    </vehicle>
    <vehicle id="Flow13.2" type="Car13" depart="75.00" fromTaz="cluster_9383263990_9383263991_9383263992_9383263993" toTaz="cluster_9383263990_9383263991_9383263992_9383263993">
        <routeDistribution last="0">
            <route cost="59.35" probability="1.00000000" edges="506322841#1 182336886 30620492#1"/>
        </routeDistribution>
    </vehicle>
    <vehicle id="Flow18.5" type="Car18" depart="75.00" fromTaz="cluster_5372642442_631668976_631668981_631669076" toTaz="2690921409">
        <routeDistribution last="0">
            <route cost="62.34" probability="1.00000000" edges="506322851#0"/>
        </routeDistribution>
    </vehicle>
    <vehicle id="Flow2.3" type="Car2" depart="75.00" fromTaz="cluster655375228_655375240" toTaz="3208478132">
        <routeDistribution last="1">
            <route cost="299.35" probability="0.49981762" edges="-E1 -300077497#8 -300077497#5 182334378#0 232003903#0 51289045#1"/>
            <route cost="376.41" probability="0.50018238" edges="-E1 263217604#0 360843888 244450512#4 314800955"/>
        </routeDistribution>
    </vehicle>
    <vehicle id="Flow4.3" type="Car4" depart="75.00" fromTaz="622618230" toTaz="2013717678">
        <routeDistribution last="1">
            <route cost="278.71" probability="0.55782590" edges="593849715 -593847704#2 593847705 593847703#0 182334379#0 288135628#0"/>
            <route cost="359.25" probability="0.44217410" edges="593849711#0 593849711#2 593847701 593847705 593847703#0 182334379#0 288135628#0"/>
        </routeDistribution>
    </vehicle>
    <vehicle id="Flow7.3" type="Car7" depart="75.00" fromTaz="631668821" toTaz="631668821">
        <routeDistribution last="0">
            <route cost="148.33" probability="1.00000000" edges="-49695726 49695726"/>
        </routeDistribution>
    </vehicle>
    <vehicle id="Flow9.1" type="Car9" depart="75.00" fromTaz="2760755470" toTaz="655375241">
        <routeDistribution last="0">
            <route cost="89.92" probability="1.00000000" edges="30620492#0 30620492#1 506322840#0"/>
        </routeDistribution>
    </vehicle>
    <vehicle id="Flow5.3" type="Car5" depart="81.82" fromTaz="7782558678" toTaz="3431431576">
        <routeDistribution last="0">
            <route cost="193.65" probability="0.47534870" edges="196961215#0 196961215#2 241518668#0 336063376#0"/>
            <route cost="157.58" probability="0.52465130" edges="196961215#0 196961215#2 288878926#0 593849711#0"/>
        </routeDistribution>
    </vehicle>
    <vehicle id="Flow1.2" type="Car1" depart="85.71" fromTaz="631668923" toTaz="622618112">
        <routeDistribution last="0">
            <route cost="476.97" probability="0.33758970" edges="1068234498#0 288135626#0 1068234499#0 -593847703#3 -593847705 593847704#0 49073272#0"/>
            <route cost="318.80" probability="0.28897821" edges="1068234498#0 288135626#0 1068234499#0 182334378#0 -E0 593847704#0 49073272#0"/>
            <route cost="265.68" probability="0.37343209" edges="1068234498#0 288135626#0 1068234499#0 -593847703#3 593847702#0"/>
        </routeDistribution>
    </vehicle>
    <vehicle id="Flow14.2" type="Car14" depart="85.71" fromTaz="622618015" toTaz="622618230">
        <routeDistribution last="0">
            <route cost="14.70" probability="1.00000000" edges="49073274 593852346"/>
        </routeDistribution>
    </vehicle>
    <vehicle id="Flow19.2" type="Car19" depart="85.71" fromTaz="631668818" toTaz="631668923">
        <routeDistribution last="0">
            <route cost="102.34" probability="1.00000000" edges="49695733#2"/>
        </routeDistribution>
    </vehicle>
    <vehicle id="Flow16.3" type="Car16" depart="90.00" fromTaz="cluster619136880_619136881_cluster_4510442270_5296993511_5296993513_619136931_#1more" toTaz="622618165">
        <routeDistribution last="0">
            <route cost="247.76" probability="1.00000000" edges="48794887#0"/>
        </routeDistribution>
    </vehicle>
    <vehicle id="Flow18.6" type="Car18" depart="90.00" fromTaz="cluster_5372642442_631668976_631668981_631669076" toTaz="2690921409">
        <routeDistribution last="0">
            <route cost="120.17" probability="1.00000000" edges="506322851#0"/>
        </routeDistribution>
    </vehicle>
    <vehicle id="Flow23.3" type="Car23" depart="100.00" fromTaz="622618197" toTaz="622618015">
        <routeDistribution last="0">
            <route cost="0.12" probability="1.00000000" edges="593849721"/>
        </routeDistribution>
    </vehicle>
    <vehicle id="Flow10.4" type="Car10" depart="100.00" fromTaz="cluster619136880_619136881_cluster_4510442270_5296993511_5296993513_619136931_#1more" toTaz="6252193077">
        <routeDistribution last="0">
            <route cost="156.87" probability="1.00000000" edges="196961377#0 196961377#3 593849718#0"/>
        </routeDistribution>
    </vehicle>
    <vehicle id="Flow2.4" type="Car2" depart="100.00" fromTaz="cluster655375228_655375240" toTaz="3208478132">
        <routeDistribution last="0">
            <route cost="229.84" probability="0.51610683" edges="-E1 -300077497#8 -300077497#5 182334378#0 232003903#0 51289045#1"/>
            <route cost="234.90" probability="0.48389317" edges="-E1 263217604#0 360843888 244450512#4 314800955"/>
        </routeDistribution>
    </vehicle>
    <vehicle id="Flow21.1" type="Car21" depart="100.00" fromTaz="3208478128" toTaz="3208478132">
        <routeDistribution last="0">
            <route cost="11.30" probability="1.00000000" edges="314800955"/>
        </routeDistribution>
    </vehicle>
    <vehicle id="Flow4.4" type="Car4" depart="100.00" fromTaz="622618230" toTaz="2013717678">
        <routeDistribution last="0">
            <route cost="307.37" probability="0.39373579" edges="593849715 -593847704#2 593847705 593847703#0 182334379#0 288135628#0"/>
            <route cost="613.19" probability="0.27147138" edges="593849715 49073272#0 49073272#1 49073272#3 49073272#4 353392316#0 288135628#0"/>
            <route cost="327.74" probability="0.33479283" edges="593849711#0 593849711#2 593847701 593847705 593847703#0 182334379#0 288135628#0"/>
        </routeDistribution>
    </vehicle>
    <vehicle id="Flow6.2" type="Car6" depart="100.00" fromTaz="6251747844" toTaz="cluster_5372642442_631668976_631668981_631669076">
        <routeDistribution last="0">
            <route cost="389.86" probability="1.00000000" edges="-260882327 -545977624#2 593842812#0 593842812#2 593844221#0 49695736#0 182334379#0"/>
        </routeDistribution>
    </vehicle>
    <vehicle id="Flow7.4" type="Car7" depart="100.00" fromTaz="631668821" toTaz="631668821">
        <routeDistribution last="0">
            <route cost="106.44" probability="1.00000000" edges="-49695726 49695726"/>
        </routeDistribution>
    </vehicle>