<?xml version="1.0" encoding="UTF-8"?>

<!-- generated on 2026-02-28 11:30:41 by Eclipse SUMO duarouter Version 1.24.0
<duarouterConfiguration xmlns:xsi="http://www.w3.org/2001/XMLSchema-instance" xsi:noNamespaceSchemaLocation="http://sumo.dlr.de/xsd/duarouterConfiguration.xsd">

    <input>
        <net-file value="./data/ntut_network_split.net copy.xml"/>
        <route-files value="./data/final_output.rou.alt.xml"/>
        <junction-taz value="true"/>
    </input>

    <output>
        <output-file value="./data/final_output.rou.xml"/>
        <alternatives-output value="./data/final_output.rou.alt.xml.tmp"/>
    </output>

    <processing>
        <max-alternatives value="3"/>
        <weights.random-factor value="12"/>
    </processing>

    <report>
        <ignore-errors value="true"/>
    </report>

</duarouterConfiguration>
-->

<routes xmlns:xsi="http://www.w3.org/2001/XMLSchema-instance" xsi:noNamespaceSchemaLocation="http://sumo.dlr.de/xsd/routes_file.xsd">
    <vType id="Car0" length="5.00" vClass="passenger" color="green"/>
    <vehicle id="Flow0.0" type="Car0" depart="0.00" fromTaz="cluster_3431431575_4777363357_655375231_6982059025" toTaz="3196998953">
        <routeDistribution last="2">
            <route cost="246.52" probability="0.37911990" edges="51362429#0 593847701 E0 -594658757#2 303647015#0"/>
            <route cost="348.40" probability="0.31671947" edges="51362429#0 1068440006#0 -594658757#2 303647015#0"/>
            <route cost="390.15" probability="0.30416063" edges="484988952#0 -51362430 1068440001 1239087513 593844221#0 1334904386#0 303647015#0"/>
        </routeDistribution>
    </vehicle>
    <vType id="Car1" length="5.00" vClass="passenger" color="green"/>
    <vehicle id="Flow1.0" type="Car1" depart="0.00" fromTaz="631668923" toTaz="622618112">
        <routeDistribution last="1">
            <route cost="400.28" probability="0.34159921" edges="1068234498#0 288135626#0 1068234499#0 -593847703#3 593847702#0"/>
            <route cost="280.45" probability="0.37804342" edges="1068234498#0 288135626#0 1068234499#0 -593847703#3 -593847705 593847704#0 49073272#0"/>
            <route cost="504.98" probability="0.28035736" edges="1068234498#0 506322851#0 506322851#2 506322853#0 668037874 196961377#0 196961377#3 593849721 49073274 593852346 593849715 49073272#0"/>
        </routeDistribution>
    </vehicle>
    <vType id="Car10" length="5.00" vClass="passenger" color="green"/>
    <vehicle id="Flow10.0" type="Car10" depart="0.00" fromTaz="2760755470" toTaz="655375241">
        <routeDistribution last="0">
            <route cost="152.64" probability="1.00000000" edges="30620492#0 30620492#1 506322840#0"/>
        </routeDistribution>
    </vehicle>
    <vType id="Car11" length="5.00" vClass="passenger" color="green"/>
    <vehicle id="Flow11.0" type="Car11" depart="0.00" fromTaz="cluster619136880_619136881_cluster_4510442270_5296993511_5296993513_619136931_#1more" toTaz="6252193077">
        <routeDistribution last="0">
            <route cost="269.35" probability="1.00000000" edges="196961377#0 196961377#3 593849718#0"/>
        </routeDistribution>
    </vehicle>
    <vType id="Car12" length="5.00" vClass="passenger" color="green"/>
    <vehicle id="Flow12.0" type="Car12" depart="0.00" fromTaz="cluster_2664674491_655375287_655375288" toTaz="2664674489">
        <routeDistribution last="0">
            <route cost="39.98" probability="1.00000000" edges="260881642#0"/>
        </routeDistribution>
    </vehicle>
    <vType id="Car13" length="5.00" vClass="passenger" color="green"/>
    <vehicle id="Flow13.0" type="Car13" depart="0.00" fromTaz="cluster_9383263990_9383263991_9383263992_9383263993" toTaz="3139323041">
        <routeDistribution last="0">
            <route cost="79.29" probability="0.41464589" edges="506322841#1 506322841#3 182336887#0 182336887#2"/>
            <route cost="48.48" probability="0.58535411" edges="506322841#1 198001764#0 182336887#2"/>
        </routeDistribution>
    </vehicle>
    <vType id="Car14" length="5.00" vClass="passenger" color="green"/>
    <vehicle id="Flow14.0" type="Car14" depart="0.00" fromTaz="3139322031" toTaz="1926948273">
        <routeDistribution last="0">
            <route cost="3.30" probability="1.00000000" edges="182336887#0"/>
        </routeDistribution>
    </vehicle>
    <vType id="Car15" length="5.00" vClass="passenger" color="green"/>
    <vehicle id="Flow15.0" type="Car15" depart="0.00" fromTaz="cluster_9383263990_9383263991_9383263992_9383263993" toTaz="cluster_9383263990_9383263991_9383263992_9383263993">
        <routeDistribution last="0">
            <route cost="89.63" probability="0.37214048" edges="506322840#0 -1334905223#2 263217603#0"/>
            <route cost="91.02" probability="0.62785952" edges="506322841#1 182336886 30620492#1"/>
        </routeDistribution>
    </vehicle>
    <vType id="Car16" length="5.00" vClass="passenger" color="green"/>
    <vehicle id="Flow16.0" type="Car16" depart="0.00" fromTaz="622618015" toTaz="622618230">
        <routeDistribution last="0">
            <route cost="53.16" probability="1.00000000" edges="49073274 593852346"/>
        </routeDistribution>
    </vehicle>
    <vType id="Car17" length="5.00" vClass="passenger" color="green"/>
    <vehicle id="Flow17.0" type="Car17" depart="0.00" fromTaz="3086736515" toTaz="622618144">
        <routeDistribution last="1">
            <route cost="24.11" probability="0.60135276" edges="593852343 906806086#0"/>
            <route cost="56.49" probability="0.39864724" edges="-49073264#1 49073274"/>
        </routeDistribution>
    </vehicle>
    <vType id="Car18" length="5.00" vClass="passenger" color="green"/>
    <vehicle id="Flow18.0" type="Car18" depart="0.00" fromTaz="cluster619136880_619136881_cluster_4510442270_5296993511_5296993513_619136931_#1more" toTaz="622618165">
        <routeDistribution last="0">
            <route cost="124.29" probability="1.00000000" edges="48794887#0"/>
        </routeDistribution>
    </vehicle>
    <vType id="Car19" length="5.00" vClass="passenger" color="green"/>
    <vehicle id="Flow19.0" type="Car19" depart="0.00" fromTaz="cluster3086736522_655375108_655375247_655375401_#1more" toTaz="cluster655375228_655375240">
        <routeDistribution last="0">
            <route cost="73.66" probability="1.00000000" edges="594658762#0"/>
        </routeDistribution>
    </vehicle>
    <vType id="Car2" length="5.00" vClass="passenger" color="green"/>
    <vehicle id="Flow2.0" type="Car2" depart="0.00" fromTaz="1926948273" toTaz="1926948228">
        <routeDistribution last="0">
            <route cost="16.32" probability="1.00000000" edges="261898534"/>
        </routeDistribution>
    </vehicle>
    <vType id="Car20" length="5.00" vClass="passenger" color="green"/>
    <vehicle id="Flow20.0" type="Car20" depart="0.00" fromTaz="cluster_5372642442_631668976_631668981_631669076" toTaz="2690921409">
        <routeDistribution last="0">
            <route cost="48.40" probability="1.00000000" edges="506322851#0"/>
        </routeDistribution>
    </vehicle>
    <vType id="Car21" length="5.00" vClass="passenger" color="green"/>
    <vehicle id="Flow21.0" type="Car21" depart="0.00" fromTaz="656132499" toTaz="cluster_2664674491_655375287_655375288">
        <routeDistribution last="0">
            <route cost="6.54" probability="1.00000000" edges="51289045#4 260881641"/>
        </routeDistribution>
    </vehicle>
    <vType id="Car22" length="5.00" vClass="passenger" color="green"/>
    <vehicle id="Flow22.0" type="Car22" depart="0.00" fromTaz="631668818" toTaz="631668923">
        <routeDistribution last="0">
            <route cost="86.71" probability="1.00000000" edges="49695733#2"/>
        </routeDistribution>
    </vehicle>
    <vType id="Car23" length="5.00" vClass="passenger" color="green"/>
    <vehicle id="Flow23.0" type="Car23" depart="0.00" fromTaz="619137000" toTaz="655374967">
        <routeDistribution last="0">
            <route cost="30.44" probability="1.00000000" edges="51362359#0"/>
        </routeDistribution>
    </vehicle>
    <vType id="Car24" length="5.00" vClass="passenger" color="green"/>
    <vehicle id="Flow24.0" type="Car24" depart="0.00" fromTaz="3208478132" toTaz="656132498">
        <routeDistribution last="0">
            <route cost="143.83" probability="1.00000000" edges="51289045#3 51392936#0"/>
        </routeDistribution>
    </vehicle>
    <vType id="Car25" length="5.00" vClass="passenger" color="green"/>
    <vehicle id="Flow25.0" type="Car25" depart="0.00" fromTaz="3208478128" toTaz="3208478132">
        <routeDistribution last="0">
            <route cost="6.76" probability="1.00000000" edges="314800955"/>
        </routeDistribution>
    </vehicle>
    <vType id="Car26" length="5.00" vClass="passenger" color="green"/>
    <vehicle id="Flow26.0" type="Car26" depart="0.00" fromTaz="cluster_623980090_623980094" toTaz="7782558675">
        <routeDistribution last="0">
            <route cost="17.44" probability="1.00000000" edges="196961379#0"/>
        </routeDistribution>
    </vehicle>
    <vType id="Car27" length="5.00" vClass="passenger" color="green"/>
    <vehicle id="Flow27.0" type="Car27" depart="0.00" fromTaz="622618197" toTaz="622618015">
        <routeDistribution last="0">
            <route cost="0.12" probability="1.00000000" edges="593849721"/>
        </routeDistribution>
    </vehicle>
    <vType id="Car28" length="5.00" vClass="passenger" color="green"/>
    <vehicle id="Flow28.0" type="Car28" depart="0.00" fromTaz="3139322031" toTaz="7199509892">
        <routeDistribution last="0">
            <route cost="74.01" probability="1.00000000" edges="506322841#4"/>
        </routeDistribution>
    </vehicle>
    <vType id="Car29" length="5.00" vClass="passenger" color="green"/>
    <vehicle id="Flow29.0" type="Car29" depart="0.00" fromTaz="655375286" toTaz="cluster655375336_end_0_655375336_end_1_655375336_end_10_655375336_end_11_#8more">
        <routeDistribution last="1">
            <route cost="151.99" probability="0.45433797" edges="244450512#0 51362431 594658757#0"/>
            <route cost="98.75" probability="0.54566203" edges="244450512#0 244450512#1 244450512#4 244450512#5 593844221#0"/>
        </routeDistribution>
    </vehicle>
    <vType id="Car3" length="5.00" vClass="passenger" color="green"/>
    <vehicle id="Flow3.0" type="Car3" depart="0.00" fromTaz="cluster655375228_655375240" toTaz="3208478132">
        <routeDistribution last="0">
            <route cost="213.47" probability="0.52268141" edges="-E1 263217604#0 360843888 244450512#4 314800955"/>
            <route cost="261.17" probability="0.47731859" edges="-E1 -300077497#8 -300077497#5 182334378#0 232003903#0 51289045#1"/>
        </routeDistribution>
    </vehicle>
    <vType id="Car30" length="5.00" vClass="passenger" color="green"/>
    <vehicle id="Flow30.0" type="Car30" depart="0.00" fromTaz="622618112" toTaz="622618197">
        <routeDistribution last="0">
            <route cost="4.65" probability="1.00000000" edges="593847702#3"/>
        </routeDistribution>
    </vehicle>
    <vType id="Car31" length="5.00" vClass="passenger" color="green"/>
    <vehicle id="Flow31.0" type="Car31" depart="0.00" fromTaz="3092676101" toTaz="cluster_623980090_623980094">
        <routeDistribution last="0">
            <route cost="122.50" probability="1.00000000" edges="268564473#0 288878927"/>
        </routeDistribution>
    </vehicle>
    <vType id="Car32" length="5.00" vClass="passenger" color="green"/>
    <vehicle id="Flow32.0" type="Car32" depart="0.00" fromTaz="2081945236" toTaz="3139322031">
        <routeDistribution last="0">
            <route cost="4.97" probability="1.00000000" edges="506322841#3"/>
        </routeDistribution>
    </vehicle>
    <vType id="Car33" length="5.00" vClass="passenger" color="green"/>
    <vehicle id="Flow33.0" type="Car33" depart="0.00" fromTaz="2664674480" toTaz="6251747844">
        <routeDistribution last="0">
            <route cost="27.41" probability="1.00000000" edges="51289045#5"/>
        </routeDistribution>
    </vehicle>
    <vType id="Car4" length="5.00" vClass="passenger" color="green"/>
    <vehicle id="Flow4.0" type="Car4" depart="0.00" fromTaz="cluster655375336_end_0_655375336_end_1_655375336_end_10_655375336_end_11_#8more" toTaz="656132476">
        <routeDistribution last="1">
            <route cost="130.74" probability="0.53765069" edges="232003903#0 51289045#1 51289045#3 51289045#4 51289045#5 -260882327"/>
            <route cost="170.84" probability="0.46234931" edges="232003903#0 593844216#0 545977624#0"/>
        </routeDistribution>
    </vehicle>
    <vType id="Car5" length="5.00" vClass="passenger" color="green"/>
    <vehicle id="Flow5.0" type="Car5" depart="0.00" fromTaz="622618230" toTaz="2013717678">
        <routeDistribution last="0">
            <route cost="414.92" probability="0.53525611" edges="593849715 -593847704#2 593847705 593847703#0 182334379#0 288135628#0"/>
            <route cost="301.95" probability="0.46474389" edges="593849711#0 593849711#2 593847701 593847705 593847703#0 182334379#0 288135628#0"/>
        </routeDistribution>
    </vehicle>
    <vType id="Car6" length="5.00" vClass="passenger" color="green"/>
    <vehicle id="Flow6.0" type="Car6" depart="0.00" fromTaz="7782558678" toTaz="3431431576">
        <routeDistribution last="1">
            <route cost="121.73" probability="0.50205883" edges="196961215#0 196961215#2 241518668#0 336063376#0"/>
            <route cost="221.38" probability="0.49794117" edges="196961215#0 196961215#2 288878926#0 593849711#0"/>
        </routeDistribution>
    </vehicle>
    <vType id="Car7" length="5.00" vClass="passenger" color="green"/>
    <vehicle id="Flow7.0" type="Car7" depart="0.00" fromTaz="6251747844" toTaz="cluster_5372642442_631668976_631668981_631669076">
        <routeDistribution last="0">
            <route cost="418.86" probability="1.00000000" edges="-260882327 -545977624#2 593842812#0 593842812#2 593844221#0 49695736#0 182334379#0"/>
        </routeDistribution>
    </vehicle>
    <vType id="Car8" length="5.00" vClass="passenger" color="green"/>
    <vehicle id="Flow8.0" type="Car8" depart="0.00" fromTaz="631668821" toTaz="631668821">
        <routeDistribution last="0">
            <route cost="144.44" probability="0.60901342" edges="-49695726 49695726"/>
            <route cost="372.63" probability="0.39098658" edges="420578931#1 506322851#2 506322853#0 506322857#0 49695733#0 420578931#0"/>
        </routeDistribution>
    </vehicle>
    <vType id="Car9" length="5.00" vClass="passenger" color="green"/>
    <vehicle id="Flow9.0" type="Car9" depart="0.00" fromTaz="622618144" toTaz="2713733789">
        <routeDistribution last="0">
            <route cost="127.29" probability="1.00000000" edges="593852345#0 196961378#1"/>
        </routeDistribution>
    </vehicle>
    <vehicle id="Flow3.1" type="Car3" depart="1.65" fromTaz="cluster655375228_655375240" toTaz="3208478132">
        <routeDistribution last="1">
            <route cost="249.50" probability="0.48047487" edges="-E1 -300077497#8 -300077497#5 182334378#0 232003903#0 51289045#1"/>
            <route cost="247.02" probability="0.51952513" edges="-E1 263217604#0 360843888 244450512#4 314800955"/>
        </routeDistribution>
    </vehicle>
    <vehicle id="Flow11.1" type="Car11" depart="1.69" fromTaz="cluster619136880_619136881_cluster_4510442270_5296993511_5296993513_619136931_#1more" toTaz="6252193077">
        <routeDistribution last="0">
            <route cost="276.68" probability="1.00000000" edges="196961377#0 196961377#3 593849718#0"/>
        </routeDistribution>
    </vehicle>
    <vehicle id="Flow5.1" type="Car5" depart="1.69" fromTaz="622618230" toTaz="2013717678">
        <routeDistribution last="1">
            <route cost="363.20" probability="0.32169964" edges="593849715 -593847704#2 593847705 593847703#0 182334379#0 288135628#0"/>
            <route cost="554.54" probability="0.32193919" edges="593849715 49073272#0 49073272#1 49073272#3 49073272#4 353392316#0 288135628#0"/>
            <route cost="256.94" probability="0.35636117" edges="593849711#0 593849711#2 593847701 593847705 593847703#0 182334379#0 288135628#0"/>
        </routeDistribution>
    </vehicle>
    <vehicle id="Flow18.1" type="Car18" depart="1.83" fromTaz="cluster619136880_619136881_cluster_4510442270_5296993511_5296993513_619136931_#1more" toTaz="622618165">
        <routeDistribution last="0">
            <route cost="244.55" probability="1.00000000" edges="48794887#0"/>
        </routeDistribution>
    </vehicle>
    <vehicle id="Flow13.1" type="Car13" depart="2.19" fromTaz="cluster_9383263990_9383263991_9383263992_9383263993" toTaz="3139323041">
        <routeDistribution last="0">
            <route cost="82.27" probability="0.51817411" edges="506322841#1 198001764#0 182336887#2"/>
            <route cost="109.61" probability="0.48182589" edges="506322841#1 506322841#3 182336887#0 182336887#2"/>
        </routeDistribution>
    </vehicle>
    <vehicle id="Flow27.1" type="Car27" depart="2.27" fromTaz="622618197" toTaz="622618015">
        <routeDistribution last="0">
            <route cost="0.06" probability="1.00000000" edges="593849721"/>
        </routeDistribution>
    </vehicle>
    <vehicle id="Flow15.1" type="Car15" depart="2.36" fromTaz="cluster_9383263990_9383263991_9383263992_9383263993" toTaz="cluster_9383263990_9383263991_9383263992_9383263993">
        <routeDistribution last="0">
            <route cost="79.79" probability="1.00000000" edges="506322841#1 182336886 30620492#1"/>
        </routeDistribution>
    </vehicle>
    <vehicle id="Flow20.1" type="Car20" depart="2.70" fromTaz="cluster_5372642442_631668976_631668981_631669076" toTaz="2690921409">
        <routeDistribution last="0">
            <route cost="132.66" probability="1.00000000" edges="506322851#0"/>
        </routeDistribution>
    </vehicle>
    <vehicle id="Flow10.1" type="Car10" depart="2.91" fromTaz="2760755470" toTaz="655375241">
        <routeDistribution last="0">
            <route cost="144.25" probability="1.00000000" edges="30620492#0 30620492#1 506322840#0"/>
        </routeDistribution>
    </vehicle>
    <vehicle id="Flow6.1" type="Car6" depart="2.94" fromTaz="7782558678" toTaz="3431431576">
        <routeDistribution last="1">
            <route cost="169.94" probability="0.47536627" edges="196961215#0 196961215#2 241518668#0 336063376#0"/>
            <route cost="107.38" probability="0.52463373" edges="196961215#0 196961215#2 288878926#0 593849711#0"/>
        </routeDistribution>
    </vehicle>
    <vehicle id="Flow16.1" type="Car16" depart="3.03" fromTaz="622618015" toTaz="622618230">
        <routeDistribution last="0">
            <route cost="40.84" probability="1.00000000" edges="49073274 593852346"/>
        </routeDistribution>
    </vehicle>
    <vehicle id="Flow3.2" type="Car3" depart="3.30" fromTaz="cluster655375228_655375240" toTaz="3208478132">
        <routeDistribution last="1">
            <route cost="257.71" probability="0.56258238" edges="-E1 -300077497#8 -300077497#5 182334378#0 232003903#0 51289045#1"/>
            <route cost="336.22" probability="0.43741762" edges="-E1 263217604#0 360843888 244450512#4 314800955"/>
        </routeDistribution>
    </vehicle>
    <vehicle id="Flow1.1" type="Car1" depart="3.33" fromTaz="631668923" toTaz="622618112">
        <routeDistribution last="0">
            <route cost="205.33" probability="0.42360744" edges="1068234498#0 288135626#0 1068234499#0 -593847703#3 593847702#0"/>
            <route cost="377.41" probability="0.28964578" edges="1068234498#0 288135626#0 1068234499#0 182334378#0 1068440004#1 -593847705 593847704#0 49073272#0"/>
            <route cost="392.62" probability="0.28674678" edges="1068234498#0 288135626#0 1068234499#0 182334378#0 1068440004#1 593847702#0"/>
        </routeDistribution>
    </vehicle>
    <vehicle id="Flow11.2" type="Car11" depart="3.39" fromTaz="cluster619136880_619136881_cluster_4510442270_5296993511_5296993513_619136931_#1more" toTaz="6252193077">
        <routeDistribution last="0">
            <route cost="225.77" probability="1.00000000" edges="196961377#0 196961377#3 593849718#0"/>
        </routeDistribution>
    </vehicle>
    <vehicle id="Flow5.2" type="Car5" depart="3.39" fromTaz="622618230" toTaz="2013717678">
        <routeDistribution last="1">
            <route cost="360.85" probability="0.34162860" edges="593849715 -593847704#2 593847705 593847703#0 182334379#0 288135628#0"/>
            <route cost="285.88" probability="0.36012361" edges="593849711#0 593849711#2 593847701 593847705 593847703#0 182334379#0 288135628#0"/>
            <route cost="340.47" probability="0.29824779" edges="593849715 49073272#0 49073272#1 49073272#3 49073272#4 353392316#0 288135628#0"/>
        </routeDistribution>
    </vehicle>
    <vehicle id="Flow18.2" type="Car18" depart="3.66" fromTaz="cluster619136880_619136881_cluster_4510442270_5296993511_5296993513_619136931_#1more" toTaz="622618165">
        <routeDistribution last="0">
            <route cost="181.54" probability="1.00000000" edges="48794887#0"/>
        </routeDistribution>
    </vehicle>
    <vehicle id="Flow8.1" type="Car8" depart="3.90" fromTaz="631668821" toTaz="631668821">
        <routeDistribution last="0">
            <route cost="178.12" probability="1.00000000" edges="-49695726 49695726"/>
        </routeDistribution>
    </vehicle>
    <vehicle id="Flow0.1" type="Car0" depart="3.95" fromTaz="cluster_3431431575_4777363357_655375231_6982059025" toTaz="3196998953">
        <routeDistribution last="2">
            <route cost="354.66" probability="0.38323185" edges="51362429#0 593847701 E0 -594658757#2 303647015#0"/>
            <route cost="517.92" probability="0.29784336" edges="51362429#0 593847701 593847705 593847703#0 182334378#0 -594658757#2 303647015#0"/>
            <route cost="351.53" probability="0.31892479" edges="484988952#0 -51362430 1068440001 1239087513 593844221#0 -594658757#2 303647015#0"/>
        </routeDistribution>
    </vehicle>
    <vehicle id="Flow9.1" type="Car9" depart="4.05" fromTaz="622618144" toTaz="2713733789">
        <routeDistribution last="0">
            <route cost="118.56" probability="1.00000000" edges="593852345#0 196961378#1"/>
        </routeDistribution>
    </vehicle>
    <vehicle id="Flow13.2" type="Car13" depart="4.38" fromTaz="cluster_9383263990_9383263991_9383263992_9383263993" toTaz="3139323041">
        <routeDistribution last="0">
            <route cost="57.21" probability="1.00000000" edges="506322841#1 198001764#0 182336887#2"/>
        </routeDistribution>
    </vehicle>
    <vehicle id="Flow4.1" type="Car4" depart="4.48" fromTaz="cluster655375336_end_0_655375336_end_1_655375336_end_10_655375336_end_11_#8more" toTaz="656132476">
        <routeDistribution last="0">
            <route cost="160.11" probability="1.00000000" edges="232003903#0 51289045#1 51289045#3 51289045#4 51289045#5 -260882327"/>
        </routeDistribution>
    </vehicle>
    <vehicle id="Flow27.2" type="Car27" depart="4.54" fromTaz="622618197" toTaz="622618015">
        <routeDistribution last="0">
            <route cost="0.12" probability="1.00000000" edges="593849721"/>
        </routeDistribution>
    </vehicle>
    <vehicle id="Flow15.2" type="Car15" depart="4.72" fromTaz="cluster_9383263990_9383263991_9383263992_9383263993" toTaz="cluster_9383263990_9383263991_9383263992_9383263993">
        <routeDistribution last="0">
            <route cost="81.78" probability="0.64474744" edges="506322841#1 182336886 30620492#1"/>
            <route cost="110.50" probability="0.35525256" edges="506322840#0 -1334905223#2 263217603#0"/>
        </routeDistribution>
    </vehicle>
    <vehicle id="Flow3.3" type="Car3" depart="4.94" fromTaz="cluster655375228_655375240" toTaz="3208478132">
        <routeDistribution last="0">
            <route cost="300.41" probability="0.50091409" edges="-E1 263217604#0 360843888 244450512#4 314800955"/>
            <route cost="171.06" probability="0.49908591" edges="-E1 -300077497#8 -300077497#5 182334378#0 232003903#0 51289045#1"/>
        </routeDistribution>
    </vehicle>
    <vehicle id="Flow11.3" type="Car11" depart="5.08" fromTaz="cluster619136880_619136881_cluster_4510442270_5296993511_5296993513_619136931_#1more" toTaz="6252193077">
        <routeDistribution last="0">
            <route cost="162.29" probability="1.00000000" edges="196961377#0 196961377#3 593849718#0"/>
        </routeDistribution>
    </vehicle>
    <vehicle id="Flow5.3" type="Car5" depart="5.08" fromTaz="622618230" toTaz="2013717678">
        <routeDistribution last="1">
            <route cost="454.55" probability="0.47995774" edges="593849715 49073272#0 49073272#1 49073272#3 49073272#4 353392316#0 288135628#0"/>
            <route cost="331.53" probability="0.52004226" edges="593849711#0 593849711#2 593847701 593847705 593847703#0 182334379#0 288135628#0"/>
        </routeDistribution>
    </vehicle>
    <vehicle id="Flow20.2" type="Car20" depart="5.40" fromTaz="cluster_5372642442_631668976_631668981_631669076" toTaz="2690921409">
        <routeDistribution last="0">
            <route cost="43.84" probability="1.00000000" edges="506322851#0"/>
        </routeDistribution>
    </vehicle>
    <vehicle id="Flow18.3" type="Car18" depart="5.49" fromTaz="cluster619136880_619136881_cluster_4510442270_5296993511_5296993513_619136931_#1more" toTaz="622618165">
        <routeDistribution last="0">
            <route cost="232.86" probability="1.00000000" edges="48794887#0"/>
        </routeDistribution>
    </vehicle>
    <vehicle id="Flow10.2" type="Car10" depart="5.82" fromTaz="2760755470" toTaz="655375241">
        <routeDistribution last="0">
            <route cost="146.30" probability="1.00000000" edges="30620492#0 30620492#1 506322840#0"/>
        </routeDistribution>
    </vehicle>
    <vehicle id="Flow6.2" type="Car6" depart="5.88" fromTaz="7782558678" toTaz="3431431576">
        <routeDistribution last="0">
            <route cost="211.49" probability="0.52883762" edges="196961215#0 196961215#2 241518668#0 336063376#0"/>
            <route cost="165.71" probability="0.47116238" edges="196961215#0 196961215#2 288878926#0 593849711#0"/>
        </routeDistribution>
    </vehicle>
    <vehicle id="Flow16.2" type="Car16" depart="6.06" fromTaz="622618015" toTaz="622618230">
        <routeDistribution last="0">
            <route cost="49.65" probability="1.00000000" edges="49073274 593852346"/>
        </routeDistribution>
    </vehicle>
    <vehicle id="Flow7.1" type="Car7" depart="6.12" fromTaz="6251747844" toTaz="cluster_5372642442_631668976_631668981_631669076">
        <routeDistribution last="0">
            <route cost="362.08" probability="1.00000000" edges="-260882327 -545977624#2 593842812#0 593842812#2 593844221#0 49695736#0 182334379#0"/>
        </routeDistribution>
    </vehicle>
    <vehicle id="Flow13.3" type="Car13" depart="6.57" fromTaz="cluster_9383263990_9383263991_9383263992_9383263993" toTaz="3139323041">
        <routeDistribution last="0">
            <route cost="44.74" probability="1.00000000" edges="506322841#1 198001764#0 182336887#2"/>
        </routeDistribution>
    </vehicle>
    <vehicle id="Flow3.4" type="Car3" depart="6.59" fromTaz="cluster655375228_655375240" toTaz="3208478132">
        <routeDistribution last="0">
            <route cost="333.49" probability="0.46033410" edges="-E1 263217604#0 360843888 244450512#4 314800955"/>
            <route cost="220.50" probability="0.53966590" edges="-E1 -300077497#8 -300077497#5 182334378#0 232003903#0 51289045#1"/>
        </routeDistribution>
    </vehicle>
    <vehicle id="Flow1.2" type="Car1" depart="6.67" fromTaz="631668923" toTaz="622618112">
        <routeDistribution last="1">
            <route cost="338.23" probability="0.35778908" edges="1068234498#0 288135626#0 1068234499#0 -593847703#3 593847702#0"/>
            <route cost="298.13" probability="0.32180654" edges="1068234498#0 288135626#0 1068234499#0 182334378#0 -E0 593847704#0 49073272#0"/>
            <route cost="371.50" probability="0.32040437" edges="1068234498#0 288135626#0 1068234499#0 -593847703#3 -593847705 593847704#0 49073272#0"/>
        </routeDistribution>
    </vehicle>
    <vehicle id="Flow11.4" type="Car11" depart="6.78" fromTaz="cluster619136880_619136881_cluster_4510442270_5296993511_5296993513_619136931_#1more" toTaz="6252193077">
        <routeDistribution last="0">
            <route cost="240.09" probability="1.00000000" edges="196961377#0 196961377#3 593849718#0"/>
        </routeDistribution>
    </vehicle>
    <vehicle id="Flow5.4" type="Car5" depart="6.78" fromTaz="622618230" toTaz="2013717678">
        <routeDistribution last="1">
            <route cost="275.61" probability="0.34900827" edges="593849715 -593847704#2 593847705 593847703#0 182334379#0 288135628#0"/>
            <route cost="380.07" probability="0.36096843" edges="593849711#0 593849711#2 593847701 593847705 593847703#0 182334379#0 288135628#0"/>
            <route cost="590.34" probability="0.29002330" edges="593849715 49073272#0 49073272#1 49073272#3 49073272#4 353392316#0 288135628#0"/>
        </routeDistribution>
    </vehicle>
    <vehicle id="Flow27.3" type="Car27" depart="6.82" fromTaz="622618197" toTaz="622618015">
        <routeDistribution last="0">
            <route cost="0.07" probability="1.00000000" edges="593849721"/>
        </routeDistribution>
    </vehicle>
    <vehicle id="Flow15.3" type="Car15" depart="7.09" fromTaz="cluster_9383263990_9383263991_9383263992_9383263993" toTaz="cluster_9383263990_9383263991_9383263992_9383263993">
        <routeDistribution last="0">
            <route cost="87.34" probability="0.52144431" edges="506322841#1 182336886 30620492#1"/>
            <route cost="64.59" probability="0.47855569" edges="506322840#0 -1334905223#2 263217603#0"/>