<?xml version="1.0" encoding="UTF-8"?>

<!-- generated on 2026-02-28 15:10:18 by Eclipse SUMO duarouter Version 1.24.0
<duarouterConfiguration xmlns:xsi="http://www.w3.org/2001/XMLSchema-instance" xsi:noNamespaceSchemaLocation="http://sumo.dlr.de/xsd/duarouterConfiguration.xsd">

    <input>
        <net-file value="./data/ntut_network_split.net copy.xml"/>
        <route-files value="./data/final_output.rou.alt.xml"/>
        <junction-taz value="true"/>
    </input>

    <output>
        <output-file value="./data/final_output.rou.xml"/>
        <alternatives-output value="./data/final_output.rou.alt.xml.tmp"/>
    </output>

    <processing>
        <max-alternatives value="3"/>
        <weights.random-factor value="12"/>
    </processing>

    <report>
        <ignore-errors value="true"/>
    </report>

</duarouterConfiguration>
-->

<routes xmlns:xsi="http://www.w3.org/2001/XMLSchema-instance" xsi:noNamespaceSchemaLocation="http://sumo.dlr.de/xsd/routes_file.xsd">
    <vType id="Car0" length="5.00" vClass="passenger" color="green"/>
    <vehicle id="Flow0.0" type="Car0" depart="0.00" fromTaz="cluster_3431431575_4777363357_655375231_6982059025" toTaz="3196998953">
        <routeDistribution last="2">
            <route cost="232.73" probability="0.40690772" edges="51362429#0 593847701 E0 -594658757#2 303647015#0"/>
            <route cost="396.83" probability="0.30864295" edges="51362429#0 593847701 E0 1334904386#0 303647015#0"/>
            <route cost="366.12" probability="0.28444933" edges="51362429#0 1068440006#0 -594658757#2 303647015#0"/>
        </routeDistribution>
    </vehicle>
    <vType id="Car1" length="5.00" vClass="passenger" color="green"/>
    <vehicle id="Flow1.0" type="Car1" depart="0.00" fromTaz="631668923" toTaz="622618112">
        <routeDistribution last="0">
            <route cost="299.52" probability="0.38064332" edges="1068234498#0 288135626#0 1068234499#0 -593847703#3 593847702#0"/>
            <route cost="398.30" probability="0.32044927" edges="1068234498#0 288135626#0 1068234499#0 182334378#0 -E0 593847704#0 49073272#0"/>
            <route cost="379.68" probability="0.29890740" edges="1068234498#0 288135626#0 1068234499#0 182334378#0 1068440004#1 593847702#0"/>
        </routeDistribution>
    </vehicle>
    <vType id="Car10" length="5.00" vClass="passenger" color="green"/>
    <vehicle id="Flow10.0" type="Car10" depart="0.00" fromTaz="2760755470" toTaz="655375241">
        <routeDistribution last="0">
            <route cost="127.07" probability="1.00000000" edges="30620492#0 30620492#1 506322840#0"/>
        </routeDistribution>
    </vehicle>
    <vType id="Car11" length="5.00" vClass="passenger" color="green"/>
    <vehicle id="Flow11.0" type="Car11" depart="0.00" fromTaz="cluster619136880_619136881_cluster_4510442270_5296993511_5296993513_619136931_#1more" toTaz="6252193077">
        <routeDistribution last="0">
            <route cost="193.09" probability="1.00000000" edges="196961377#0 196961377#3 593849718#0"/>
        </routeDistribution>
    </vehicle>
    <vType id="Car12" length="5.00" vClass="passenger" color="green"/>
    <vehicle id="Flow12.0" type="Car12" depart="0.00" fromTaz="cluster_2664674491_655375287_655375288" toTaz="2664674489">
        <routeDistribution last="0">
            <route cost="47.55" probability="1.00000000" edges="260881642#0"/>
        </routeDistribution>
    </vehicle>
    <vType id="Car13" length="5.00" vClass="passenger" color="green"/>
    <vehicle id="Flow13.0" type="Car13" depart="0.00" fromTaz="cluster_9383263990_9383263991_9383263992_9383263993" toTaz="3139323041">
        <routeDistribution last="0">
            <route cost="46.90" probability="1.00000000" edges="506322841#1 198001764#0 182336887#2"/>
        </routeDistribution>
    </vehicle>
    <vType id="Car14" length="5.00" vClass="passenger" color="green"/>
    <vehicle id="Flow14.0" type="Car14" depart="0.00" fromTaz="3139322031" toTaz="1926948273">
        <routeDistribution last="0">
            <route cost="6.53" probability="1.00000000" edges="182336887#0"/>
        </routeDistribution>
    </vehicle>
    <vType id="Car15" length="5.00" vClass="passenger" color="green"/>
    <vehicle id="Flow15.0" type="Car15" depart="0.00" fromTaz="cluster_9383263990_9383263991_9383263992_9383263993" toTaz="cluster_9383263990_9383263991_9383263992_9383263993">
        <routeDistribution last="0">
            <route cost="67.09" probability="1.00000000" edges="506322841#1 182336886 30620492#1"/>
        </routeDistribution>
    </vehicle>
    <vType id="Car16" length="5.00" vClass="passenger" color="green"/>
    <vehicle id="Flow16.0" type="Car16" depart="0.00" fromTaz="622618015" toTaz="622618230">
        <routeDistribution last="0">
            <route cost="27.17" probability="1.00000000" edges="49073274 593852346"/>
        </routeDistribution>
    </vehicle>
    <vType id="Car17" length="5.00" vClass="passenger" color="green"/>
    <vehicle id="Flow17.0" type="Car17" depart="0.00" fromTaz="3086736515" toTaz="622618144">
        <routeDistribution last="1">
            <route cost="61.24" probability="0.60741468" edges="-49073264#1 49073274"/>
            <route cost="74.05" probability="0.39258532" edges="593852343 906806086#0"/>
        </routeDistribution>
    </vehicle>
    <vType id="Car18" length="5.00" vClass="passenger" color="green"/>
    <vehicle id="Flow18.0" type="Car18" depart="0.00" fromTaz="cluster619136880_619136881_cluster_4510442270_5296993511_5296993513_619136931_#1more" toTaz="622618165">
        <routeDistribution last="0">
            <route cost="168.41" probability="1.00000000" edges="48794887#0"/>
        </routeDistribution>
    </vehicle>
    <vType id="Car19" length="5.00" vClass="passenger" color="green"/>
    <vehicle id="Flow19.0" type="Car19" depart="0.00" fromTaz="cluster3086736522_655375108_655375247_655375401_#1more" toTaz="cluster655375228_655375240">
        <routeDistribution last="0">
            <route cost="213.19" probability="1.00000000" edges="594658762#0"/>
        </routeDistribution>
    </vehicle>
    <vType id="Car2" length="5.00" vClass="passenger" color="green"/>
    <vehicle id="Flow2.0" type="Car2" depart="0.00" fromTaz="1926948273" toTaz="1926948228">
        <routeDistribution last="0">
            <route cost="3.27" probability="1.00000000" edges="261898534"/>
        </routeDistribution>
    </vehicle>
    <vType id="Car20" length="5.00" vClass="passenger" color="green"/>
    <vehicle id="Flow20.0" type="Car20" depart="0.00" fromTaz="cluster_5372642442_631668976_631668981_631669076" toTaz="2690921409">
        <routeDistribution last="0">
            <route cost="141.32" probability="1.00000000" edges="506322851#0"/>
        </routeDistribution>
    </vehicle>
    <vType id="Car21" length="5.00" vClass="passenger" color="green"/>
    <vehicle id="Flow21.0" type="Car21" depart="0.00" fromTaz="656132499" toTaz="cluster_2664674491_655375287_655375288">
        <routeDistribution last="0">
            <route cost="9.95" probability="1.00000000" edges="51289045#4 260881641"/>
        </routeDistribution>
    </vehicle>
    <vType id="Car22" length="5.00" vClass="passenger" color="green"/>
    <vehicle id="Flow22.0" type="Car22" depart="0.00" fromTaz="631668818" toTaz="631668923">
        <routeDistribution last="0">
            <route cost="112.03" probability="1.00000000" edges="49695733#2"/>
        </routeDistribution>
    </vehicle>
    <vType id="Car23" length="5.00" vClass="passenger" color="green"/>
    <vehicle id="Flow23.0" type="Car23" depart="0.00" fromTaz="619137000" toTaz="655374967">
        <routeDistribution last="0">
            <route cost="75.63" probability="1.00000000" edges="51362359#0"/>
        </routeDistribution>
    </vehicle>
    <vType id="Car24" length="5.00" vClass="passenger" color="green"/>
    <vehicle id="Flow24.0" type="Car24" depart="0.00" fromTaz="3208478132" toTaz="656132498">
        <routeDistribution last="0">
            <route cost="89.78" probability="1.00000000" edges="51289045#3 51392936#0"/>
        </routeDistribution>
    </vehicle>
    <vType id="Car25" length="5.00" vClass="passenger" color="green"/>
    <vehicle id="Flow25.0" type="Car25" depart="0.00" fromTaz="3208478128" toTaz="3208478132">
        <routeDistribution last="0">
            <route cost="5.69" probability="1.00000000" edges="314800955"/>
        </routeDistribution>
    </vehicle>
    <vType id="Car26" length="5.00" vClass="passenger" color="green"/>
    <vehicle id="Flow26.0" type="Car26" depart="0.00" fromTaz="cluster_623980090_623980094" toTaz="7782558675">
        <routeDistribution last="0">
            <route cost="32.53" probability="1.00000000" edges="196961379#0"/>
        </routeDistribution>
    </vehicle>
    <vType id="Car27" length="5.00" vClass="passenger" color="green"/>
    <vehicle id="Flow27.0" type="Car27" depart="0.00" fromTaz="622618197" toTaz="622618015">
        <routeDistribution last="0">
            <route cost="0.12" probability="1.00000000" edges="593849721"/>
        </routeDistribution>
    </vehicle>
    <vType id="Car28" length="5.00" vClass="passenger" color="green"/>
    <vehicle id="Flow28.0" type="Car28" depart="0.00" fromTaz="3139322031" toTaz="7199509892">
        <routeDistribution last="0">
            <route cost="25.39" probability="1.00000000" edges="506322841#4"/>
        </routeDistribution>
    </vehicle>
    <vType id="Car29" length="5.00" vClass="passenger" color="green"/>
    <vehicle id="Flow29.0" type="Car29" depart="0.00" fromTaz="655375286" toTaz="cluster655375336_end_0_655375336_end_1_655375336_end_10_655375336_end_11_#8more">
        <routeDistribution last="0">
            <route cost="158.88" probability="0.56147458" edges="244450512#0 244450512#1 244450512#4 244450512#5 593844221#0"/>
            <route cost="85.85" probability="0.43852542" edges="244450512#0 51362431 594658757#0"/>
        </routeDistribution>
    </vehicle>
    <vType id="Car3" length="5.00" vClass="passenger" color="green"/>
    <vehicle id="Flow3.0" type="Car3" depart="0.00" fromTaz="cluster655375228_655375240" toTaz="3208478132">
        <routeDistribution last="0">
            <route cost="225.95" probability="0.52938717" edges="-E1 -300077497#8 -300077497#5 182334378#0 232003903#0 51289045#1"/>
            <route cost="323.16" probability="0.47061283" edges="-E1 263217604#0 360843888 244450512#4 314800955"/>
        </routeDistribution>
    </vehicle>
    <vType id="Car30" length="5.00" vClass="passenger" color="green"/>
    <vehicle id="Flow30.0" type="Car30" depart="0.00" fromTaz="622618112" toTaz="622618197">
        <routeDistribution last="0">
            <route cost="10.04" probability="1.00000000" edges="593847702#3"/>
        </routeDistribution>
    </vehicle>
    <vType id="Car31" length="5.00" vClass="passenger" color="green"/>
    <vehicle id="Flow31.0" type="Car31" depart="0.00" fromTaz="3092676101" toTaz="cluster_623980090_623980094">
        <routeDistribution last="0">
            <route cost="107.16" probability="1.00000000" edges="268564473#0 288878927"/>
        </routeDistribution>
    </vehicle>
    <vType id="Car32" length="5.00" vClass="passenger" color="green"/>
    <vehicle id="Flow32.0" type="Car32" depart="0.00" fromTaz="2081945236" toTaz="3139322031">
        <routeDistribution last="0">
            <route cost="13.74" probability="1.00000000" edges="506322841#3"/>
        </routeDistribution>
    </vehicle>
    <vType id="Car4" length="5.00" vClass="passenger" color="green"/>
    <vehicle id="Flow4.0" type="Car4" depart="0.00" fromTaz="cluster655375336_end_0_655375336_end_1_655375336_end_10_655375336_end_11_#8more" toTaz="656132476">
        <routeDistribution last="0">
            <route cost="148.36" probability="0.49031568" edges="232003903#0 593844216#0 545977624#0"/>
            <route cost="130.03" probability="0.50968432" edges="232003903#0 51289045#1 51289045#3 51289045#4 51289045#5 -260882327"/>
        </routeDistribution>
    </vehicle>
    <vType id="Car5" length="5.00" vClass="passenger" color="green"/>
    <vehicle id="Flow5.0" type="Car5" depart="0.00" fromTaz="622618230" toTaz="2013717678">
        <routeDistribution last="0">
            <route cost="503.20" probability="0.53020691" edges="593849711#0 593849711#2 593847701 593847705 593847703#0 182334379#0 288135628#0"/>
            <route cost="357.71" probability="0.46979309" edges="593849715 -593847704#2 593847705 593847703#0 182334379#0 288135628#0"/>
        </routeDistribution>
    </vehicle>
    <vType id="Car6" length="5.00" vClass="passenger" color="green"/>
    <vehicle id="Flow6.0" type="Car6" depart="0.00" fromTaz="7782558678" toTaz="3431431576">
        <routeDistribution last="0">
            <route cost="158.22" probability="1.00000000" edges="196961215#0 196961215#2 241518668#0 336063376#0"/>
        </routeDistribution>
    </vehicle>
    <vType id="Car7" length="5.00" vClass="passenger" color="green"/>
    <vehicle id="Flow7.0" type="Car7" depart="0.00" fromTaz="6251747844" toTaz="cluster_5372642442_631668976_631668981_631669076">
        <routeDistribution last="0">
            <route cost="309.07" probability="1.00000000" edges="-260882327 -545977624#2 593842812#0 593842812#2 593844221#0 49695736#0 182334379#0"/>
        </routeDistribution>
    </vehicle>
    <vType id="Car8" length="5.00" vClass="passenger" color="green"/>
    <vehicle id="Flow8.0" type="Car8" depart="0.00" fromTaz="631668821" toTaz="631668821">
        <routeDistribution last="0">
            <route cost="217.74" probability="1.00000000" edges="-49695726 49695726"/>
        </routeDistribution>
    </vehicle>
    <vType id="Car9" length="5.00" vClass="passenger" color="green"/>
    <vehicle id="Flow9.0" type="Car9" depart="0.00" fromTaz="622618144" toTaz="2713733789">
        <routeDistribution last="0">
            <route cost="97.79" probability="1.00000000" edges="593852345#0 196961378#1"/>
        </routeDistribution>
    </vehicle>
    <vehicle id="Flow11.1" type="Car11" depart="3.70" fromTaz="cluster619136880_619136881_cluster_4510442270_5296993511_5296993513_619136931_#1more" toTaz="6252193077">
        <routeDistribution last="0">
            <route cost="211.62" probability="1.00000000" edges="196961377#0 196961377#3 593849718#0"/>
        </routeDistribution>
    </vehicle>
    <vehicle id="Flow18.1" type="Car18" depart="3.70" fromTaz="cluster619136880_619136881_cluster_4510442270_5296993511_5296993513_619136931_#1more" toTaz="622618165">
        <routeDistribution last="0">
            <route cost="21.77" probability="1.00000000" edges="48794887#0"/>
        </routeDistribution>
    </vehicle>
    <vehicle id="Flow3.1" type="Car3" depart="3.80" fromTaz="cluster655375228_655375240" toTaz="3208478132">
        <routeDistribution last="0">
            <route cost="305.11" probability="1.00000000" edges="-E1 -300077497#8 -300077497#5 182334378#0 232003903#0 51289045#1"/>
        </routeDistribution>
    </vehicle>
    <vehicle id="Flow6.1" type="Car6" depart="3.85" fromTaz="7782558678" toTaz="3431431576">
        <routeDistribution last="0">
            <route cost="184.80" probability="1.00000000" edges="196961215#0 196961215#2 241518668#0 336063376#0"/>
        </routeDistribution>
    </vehicle>
    <vehicle id="Flow20.1" type="Car20" depart="4.84" fromTaz="cluster_5372642442_631668976_631668981_631669076" toTaz="2690921409">
        <routeDistribution last="0">
            <route cost="18.67" probability="1.00000000" edges="506322851#0"/>
        </routeDistribution>
    </vehicle>
    <vehicle id="Flow5.1" type="Car5" depart="5.00" fromTaz="622618230" toTaz="2013717678">
        <routeDistribution last="1">
            <route cost="378.60" probability="0.30919927" edges="593849715 49073272#0 49073272#1 49073272#3 49073272#4 353392316#0 288135628#0"/>
            <route cost="344.49" probability="0.35632092" edges="593849711#0 593849711#2 593847701 593847705 593847703#0 182334379#0 288135628#0"/>
            <route cost="405.20" probability="0.33447981" edges="593849715 -593847704#2 593847705 593847703#0 182334379#0 288135628#0"/>
        </routeDistribution>
    </vehicle>
    <vehicle id="Flow13.1" type="Car13" depart="5.08" fromTaz="cluster_9383263990_9383263991_9383263992_9383263993" toTaz="3139323041">
        <routeDistribution last="1">
            <route cost="71.62" probability="0.50822059" edges="506322841#1 198001764#0 182336887#2"/>
            <route cost="85.22" probability="0.49177941" edges="506322841#1 506322841#3 182336887#0 182336887#2"/>
        </routeDistribution>
    </vehicle>
    <vehicle id="Flow8.1" type="Car8" depart="6.52" fromTaz="631668821" toTaz="631668821">
        <routeDistribution last="0">
            <route cost="156.65" probability="1.00000000" edges="-49695726 49695726"/>
        </routeDistribution>
    </vehicle>
    <vehicle id="Flow27.1" type="Car27" depart="6.67" fromTaz="622618197" toTaz="622618015">
        <routeDistribution last="0">
            <route cost="0.11" probability="1.00000000" edges="593849721"/>
        </routeDistribution>
    </vehicle>
    <vehicle id="Flow10.1" type="Car10" depart="6.82" fromTaz="2760755470" toTaz="655375241">
        <routeDistribution last="0">
            <route cost="170.43" probability="1.00000000" edges="30620492#0 30620492#1 506322840#0"/>
        </routeDistribution>
    </vehicle>
    <vehicle id="Flow11.2" type="Car11" depart="7.41" fromTaz="cluster619136880_619136881_cluster_4510442270_5296993511_5296993513_619136931_#1more" toTaz="6252193077">
        <routeDistribution last="0">
            <route cost="202.48" probability="1.00000000" edges="196961377#0 196961377#3 593849718#0"/>
        </routeDistribution>
    </vehicle>
    <vehicle id="Flow18.2" type="Car18" depart="7.41" fromTaz="cluster619136880_619136881_cluster_4510442270_5296993511_5296993513_619136931_#1more" toTaz="622618165">
        <routeDistribution last="0">
            <route cost="247.02" probability="1.00000000" edges="48794887#0"/>
        </routeDistribution>
    </vehicle>
    <vehicle id="Flow3.2" type="Car3" depart="7.59" fromTaz="cluster655375228_655375240" toTaz="3208478132">
        <routeDistribution last="0">
            <route cost="275.54" probability="0.49472050" edges="-E1 -300077497#8 -300077497#5 182334378#0 232003903#0 51289045#1"/>
            <route cost="325.23" probability="0.50527950" edges="-E1 263217604#0 360843888 244450512#4 314800955"/>
        </routeDistribution>
    </vehicle>
    <vehicle id="Flow15.1" type="Car15" depart="7.69" fromTaz="cluster_9383263990_9383263991_9383263992_9383263993" toTaz="cluster_9383263990_9383263991_9383263992_9383263993">
        <routeDistribution last="1">
            <route cost="58.21" probability="0.53265876" edges="506322841#1 182336886 30620492#1"/>
            <route cost="104.08" probability="0.46734124" edges="506322840#0 -1334905223#2 263217603#0"/>
        </routeDistribution>
    </vehicle>
    <vehicle id="Flow6.2" type="Car6" depart="7.69" fromTaz="7782558678" toTaz="3431431576">
        <routeDistribution last="0">
            <route cost="159.76" probability="0.51174042" edges="196961215#0 196961215#2 241518668#0 336063376#0"/>
            <route cost="189.77" probability="0.48825958" edges="196961215#0 196961215#2 288878926#0 593849711#0"/>
        </routeDistribution>
    </vehicle>
    <vehicle id="Flow0.1" type="Car0" depart="8.33" fromTaz="cluster_3431431575_4777363357_655375231_6982059025" toTaz="3196998953">
        <routeDistribution last="0">
            <route cost="266.91" probability="0.43142817" edges="484988952#0 -51362430 1068440001 1239087513 593844221#0 1334904386#0 303647015#0"/>
            <route cost="412.09" probability="0.28511736" edges="484988952#0 -51362430 1068440001 1239087513 593844221#0 -594658757#2 303647015#0"/>
            <route cost="348.09" probability="0.28345447" edges="51362429#0 593847701 E0 1334904386#0 303647015#0"/>
        </routeDistribution>
    </vehicle>
    <vehicle id="Flow1.1" type="Car1" depart="8.82" fromTaz="631668923" toTaz="622618112">
        <routeDistribution last="1">
            <route cost="391.97" probability="0.46092582" edges="1068234498#0 288135626#0 1068234499#0 182334378#0 1068440004#1 593847702#0"/>
            <route cost="290.40" probability="0.53907418" edges="1068234498#0 288135626#0 1068234499#0 -593847703#3 593847702#0"/>
        </routeDistribution>
    </vehicle>
    <vehicle id="Flow16.1" type="Car16" depart="8.82" fromTaz="622618015" toTaz="622618230">
        <routeDistribution last="0">
            <route cost="59.63" probability="1.00000000" edges="49073274 593852346"/>
        </routeDistribution>
    </vehicle>
    <vehicle id="Flow20.2" type="Car20" depart="9.68" fromTaz="cluster_5372642442_631668976_631668981_631669076" toTaz="2690921409">
        <routeDistribution last="0">
            <route cost="108.00" probability="1.00000000" edges="506322851#0"/>
        </routeDistribution>
    </vehicle>
    <vehicle id="Flow5.2" type="Car5" depart="10.00" fromTaz="622618230" toTaz="2013717678">
        <routeDistribution last="1">
            <route cost="316.47" probability="0.36357585" edges="593849711#0 593849711#2 593847701 593847705 593847703#0 182334379#0 288135628#0"/>
            <route cost="302.08" probability="0.33666980" edges="593849715 -593847704#2 593847705 593847703#0 182334379#0 288135628#0"/>
            <route cost="460.66" probability="0.29975435" edges="593849715 49073272#0 49073272#1 49073272#3 49073272#4 353392316#0 288135628#0"/>
        </routeDistribution>
    </vehicle>
    <vehicle id="Flow13.2" type="Car13" depart="10.17" fromTaz="cluster_9383263990_9383263991_9383263992_9383263993" toTaz="3139323041">
        <routeDistribution last="0">
            <route cost="30.74" probability="1.00000000" edges="506322841#1 198001764#0 182336887#2"/>
        </routeDistribution>
    </vehicle>
    <vehicle id="Flow11.3" type="Car11" depart="11.11" fromTaz="cluster619136880_619136881_cluster_4510442270_5296993511_5296993513_619136931_#1more" toTaz="6252193077">
        <routeDistribution last="0">
            <route cost="109.32" probability="1.00000000" edges="196961377#0 196961377#3 593849718#0"/>
        </routeDistribution>
    </vehicle>
    <vehicle id="Flow18.3" type="Car18" depart="11.11" fromTaz="cluster619136880_619136881_cluster_4510442270_5296993511_5296993513_619136931_#1more" toTaz="622618165">
        <routeDistribution last="0">
            <route cost="32.43" probability="1.00000000" edges="48794887#0"/>
        </routeDistribution>
    </vehicle>
    <vehicle id="Flow3.3" type="Car3" depart="11.39" fromTaz="cluster655375228_655375240" toTaz="3208478132">
        <routeDistribution last="0">
            <route cost="264.91" probability="0.49765543" edges="-E1 263217604#0 360843888 244450512#4 314800955"/>
            <route cost="277.06" probability="0.50234457" edges="-E1 -300077497#8 -300077497#5 182334378#0 232003903#0 51289045#1"/>
        </routeDistribution>
    </vehicle>
    <vehicle id="Flow6.3" type="Car6" depart="11.54" fromTaz="7782558678" toTaz="3431431576">
        <routeDistribution last="0">
            <route cost="141.23" probability="1.00000000" edges="196961215#0 196961215#2 241518668#0 336063376#0"/>
        </routeDistribution>
    </vehicle>
    <vehicle id="Flow4.1" type="Car4" depart="12.00" fromTaz="cluster655375336_end_0_655375336_end_1_655375336_end_10_655375336_end_11_#8more" toTaz="656132476">
        <routeDistribution last="1">
            <route cost="136.98" probability="0.44503994" edges="232003903#0 593844216#0 545977624#0"/>
            <route cost="82.80" probability="0.55496006" edges="232003903#0 51289045#1 51289045#3 51289045#4 51289045#5 -260882327"/>
        </routeDistribution>
    </vehicle>
    <vehicle id="Flow7.1" type="Car7" depart="12.00" fromTaz="6251747844" toTaz="cluster_5372642442_631668976_631668981_631669076">
        <routeDistribution last="0">
            <route cost="397.15" probability="1.00000000" edges="-260882327 -545977624#2 593842812#0 593842812#2 593844221#0 49695736#0 182334379#0"/>
        </routeDistribution>
    </vehicle>
    <vehicle id="Flow9.1" type="Car9" depart="12.00" fromTaz="622618144" toTaz="2713733789">
        <routeDistribution last="0">
            <route cost="133.83" probability="1.00000000" edges="593852345#0 196961378#1"/>
        </routeDistribution>
    </vehicle>
    <vehicle id="Flow8.2" type="Car8" depart="13.04" fromTaz="631668821" toTaz="631668821">
        <routeDistribution last="0">
            <route cost="133.49" probability="1.00000000" edges="-49695726 49695726"/>
        </routeDistribution>
    </vehicle>
    <vehicle id="Flow27.2" type="Car27" depart="13.33" fromTaz="622618197" toTaz="622618015">
        <routeDistribution last="0">
            <route cost="0.02" probability="1.00000000" edges="593849721"/>
        </routeDistribution>
    </vehicle>
    <vehicle id="Flow10.2" type="Car10" depart="13.64" fromTaz="2760755470" toTaz="655375241">
        <routeDistribution last="1">
            <route cost="129.48" probability="0.55007466" edges="30620492#0 30620492#1 506322840#0"/>
            <route cost="202.90" probability="0.44992534" edges="30620492#0 30620492#1 506322844#0 E1 1334905223#0"/>
        </routeDistribution>
    </vehicle>
    <vehicle id="Flow31.1" type="Car31" depart="13.64" fromTaz="3092676101" toTaz="cluster_623980090_623980094">
        <routeDistribution last="0">
            <route cost="65.37" probability="1.00000000" edges="268564473#0 288878927"/>
        </routeDistribution>
    </vehicle>
    <vehicle id="Flow20.3" type="Car20" depart="14.51" fromTaz="cluster_5372642442_631668976_631668981_631669076" toTaz="2690921409">
        <routeDistribution last="0">
            <route cost="96.68" probability="1.00000000" edges="506322851#0"/>
        </routeDistribution>
    </vehicle>
    <vehicle id="Flow11.4" type="Car11" depart="14.81" fromTaz="cluster619136880_619136881_cluster_4510442270_5296993511_5296993513_619136931_#1more" toTaz="6252193077">
        <routeDistribution last="0">
            <route cost="201.37" probability="1.00000000" edges="196961377#0 196961377#3 593849718#0"/>
        </routeDistribution>
    </vehicle>
    <vehicle id="Flow18.4" type="Car18" depart="14.81" fromTaz="cluster619136880_619136881_cluster_4510442270_5296993511_5296993513_619136931_#1more" toTaz="622618165">
        <routeDistribution last="0">
            <route cost="188.74" probability="1.00000000" edges="48794887#0"/>
        </routeDistribution>
    </vehicle>
    <vehicle id="Flow5.3" type="Car5" depart="15.00" fromTaz="622618230" toTaz="2013717678">
        <routeDistribution last="0">
            <route cost="370.29" probability="0.50558644" edges="593849715 -593847704#2 593847705 593847703#0 182334379#0 288135628#0"/>
            <route cost="304.76" probability="0.49441356" edges="593849711#0 593849711#2 593847701 593847705 593847703#0 182334379#0 288135628#0"/>
        </routeDistribution>
    </vehicle>
    <vehicle id="Flow3.4" type="Car3" depart="15.19" fromTaz="cluster655375228_655375240" toTaz="3208478132">
        <routeDistribution last="0">
            <route cost="283.36" probability="0.45566182" edges="-E1 263217604#0 360843888 244450512#4 314800955"/>
            <route cost="291.67" probability="0.54433818" edges="-E1 -300077497#8 -300077497#5 182334378#0 232003903#0 51289045#1"/>
        </routeDistribution>
    </vehicle>
    <vehicle id="Flow13.3" type="Car13" depart="15.25" fromTaz="cluster_9383263990_9383263991_9383263992_9383263993" toTaz="3139323041">
        <routeDistribution last="1">
            <route cost="80.42" probability="0.51936822" edges="506322841#1 198001764#0 182336887#2"/>
            <route cost="109.12" probability="0.48063178" edges="506322841#1 506322841#3 182336887#0 182336887#2"/>
        </routeDistribution>
    </vehicle>
    <vehicle id="Flow15.2" type="Car15" depart="15.38" fromTaz="cluster_9383263990_9383263991_9383263992_9383263993" toTaz="cluster_9383263990_9383263991_9383263992_9383263993">
        <routeDistribution last="0">
            <route cost="68.88" probability="0.60604504" edges="506322841#1 182336886 30620492#1"/>
            <route cost="119.31" probability="0.39395496" edges="506322840#0 -1334905223#2 263217603#0"/>
        </routeDistribution>
    </vehicle>
    <vehicle id="Flow6.4" type="Car6" depart="15.38" fromTaz="7782558678" toTaz="3431431576">
        <routeDistribution last="1">
            <route cost="126.89" probability="0.51689683" edges="196961215#0 196961215#2 241518668#0 336063376#0"/>
            <route cost="153.30" probability="0.48310317" edges="196961215#0 196961215#2 288878926#0 593849711#0"/>
        </routeDistribution>
    </vehicle>
    <vehicle id="Flow0.2" type="Car0" depart="16.67" fromTaz="cluster_3431431575_4777363357_655375231_6982059025" toTaz="3196998953">
        <routeDistribution last="2">
            <route cost="208.34" probability="0.40575518" edges="51362429#0 593847701 E0 -594658757#2 303647015#0"/>
            <route cost="364.84" probability="0.31863965" edges="51362429#0 1068440006#0 -594658757#2 303647015#0"/>
            <route cost="516.98" probability="0.27560517" edges="51362429#0 1068440006#0 1334904386#0 303647015#0"/>
        </routeDistribution>
    </vehicle>
    <vehicle id="Flow1.2" type="Car1" depart="17.65" fromTaz="631668923" toTaz="622618112">
        <routeDistribution last="2">
            <route cost="488.30" probability="0.39530872" edges="1068234498#0 288135626#0 1068234499#0 -593847703#3 593847702#0"/>
            <route cost="373.43" probability="0.29145368" edges="1068234498#0 288135626#0 1068234499#0 -593847703#3 -593847705 593847704#0 49073272#0"/>