<?xml version="1.0" encoding="UTF-8"?>

<!-- generated on 2026-01-16 23:58:14.222044 by osmWebWizard.py v1_24_0+0000-b72eb3fabc8
<configuration>
    <net-file value="C:\Users\User\2026-01-16-23-57-37\osm.net.xml.gz"/>
    <output-trip-file value="C:\Users\User\2026-01-16-23-57-37\osm.passenger.trips.xml"/>
    <route-file value="C:\Users\User\2026-01-16-23-57-37\osm.passenger.rou.xml"/>
    <prefix value="veh"/>
    <trip-attributes value="departLane=&quot;best&quot;"/>
    <fringe-start-attributes value="departSpeed=&quot;max&quot;"/>
    <vehicle-class value="passenger"/>
    <lanes value="True"/>
    <fringe-factor value="5"/>
    <allow-fringe.min-length value="1000.0"/>
    <edge-permission value="passenger"/>
    <via-edge-types value="highway.motorway,highway.motorway_link,highway.trunk_link,highway.primary_link,highway.secondary_link,highway.tertiary_link"/>
    <min-distance value="300.0"/>
    <min-distance.fringe value="10.0"/>
    <remove-loops value="True"/>
    <insertion-density value="12.0"/>
</configuration>
-->

<routes xmlns:xsi="http://www.w3.org/2001/XMLSchema-instance" xsi:noNamespaceSchemaLocation="http://sumo.dlr.de/xsd/routes_file.xsd">
    <vType id="veh_passenger" vClass="passenger"/>
    <trip id="veh0" depart="0.00" from="51885100#0" to="-347293077#2" departLane="best" type="veh_passenger" departSpeed="max"/>
    <trip id="veh1" depart="2.19" from="241518668#2" to="-241811768#4" departLane="best" type="veh_passenger"/>
    <trip id="veh2" depart="4.39" from="-241811768#1" to="1068234506#0" departLane="best" type="veh_passenger"/>
    <trip id="veh3" depart="6.58" from="360018417" to="296214427#11" departLane="best" type="veh_passenger"/>
    <trip id="veh4" depart="8.77" from="1312616705#0" to="300077497#0" departLane="best" type="veh_passenger"/>
    <trip id="veh5" depart="10.96" from="506322861#0" to="-1320961816" departLane="best" type="veh_passenger" departSpeed="max"/>
    <trip id="veh6" depart="13.16" from="506322861#0" to="405980642#0" departLane="best" type="veh_passenger" departSpeed="max"/>
    <trip id="veh7" depart="15.35" from="196961202#0" to="1062919952#4" departLane="best" type="veh_passenger"/>
    <trip id="veh8" depart="17.54" from="668037880#6" to="182973460#2" departLane="best" type="veh_passenger"/>
    <trip id="veh9" depart="19.74" from="-381733807#2" to="-48794877#2" departLane="best" type="veh_passenger"/>
    <trip id="veh10" depart="21.93" from="51392882" to="303647014#8" departLane="best" type="veh_passenger" departSpeed="max"/>
    <trip id="veh11" depart="24.12" from="506322861#0" to="435677306" departLane="best" type="veh_passenger" departSpeed="max"/>
    <trip id="veh12" depart="26.32" from="296214428#0" to="668037883#1" departLane="best" type="veh_passenger"/>
    <trip id="veh13" depart="28.51" from="198001762#3" to="296214428#5" departLane="best" type="veh_passenger"/>
    <trip id="veh14" depart="30.70" from="50823701#2" to="304850037#2" departLane="best" type="veh_passenger"/>
    <trip id="veh15" depart="32.89" from="51423093#0" to="297240250#10" departLane="best" type="veh_passenger" departSpeed="max"/>
    <trip id="veh16" depart="35.09" from="48742279" to="-26697218#7" departLane="best" type="veh_passenger" departSpeed="max"/>
    <trip id="veh17" depart="37.28" from="-312110133#1" to="131457243#0" departLane="best" type="veh_passenger"/>
    <trip id="veh18" depart="39.47" from="-48794882#1" to="1320961817#7" departLane="best" type="veh_passenger"/>
    <trip id="veh19" depart="41.67" from="336182122#0" to="196961215#1" departLane="best" type="veh_passenger" departSpeed="max"/>
    <trip id="veh20" depart="43.86" from="196961379#23" to="1068439989#0" departLane="best" type="veh_passenger"/>
    <trip id="veh21" depart="46.05" from="137195740#0" to="593844216#0" departLane="best" type="veh_passenger" departSpeed="max"/>
    <trip id="veh22" depart="48.24" from="1064294849#1" to="435677306" departLane="best" type="veh_passenger"/>
    <trip id="veh23" depart="50.44" from="910093765#0" to="31127861" departLane="best" type="veh_passenger" departSpeed="max"/>
    <trip id="veh24" depart="52.63" from="297240250#5" to="360851262#0" departLane="best" type="veh_passenger"/>
    <trip id="veh25" depart="54.82" from="131473113" to="-251212752#0" departLane="best" type="veh_passenger"/>
    <trip id="veh26" depart="57.02" from="182334379#2" to="1320961817#0" departLane="best" type="veh_passenger"/>
    <trip id="veh27" depart="59.21" from="1068439999#1" to="593849715" departLane="best" type="veh_passenger"/>
    <trip id="veh28" depart="61.40" from="515156305#2" to="154829883#0" departLane="best" type="veh_passenger"/>
    <trip id="veh29" depart="63.59" from="360851263#7" to="198874288#2" departLane="best" type="veh_passenger"/>
    <trip id="veh30" depart="65.79" from="557913218#0" to="251277094#0" departLane="best" type="veh_passenger"/>
    <trip id="veh31" depart="67.98" from="1334904386#0" to="131473115" departLane="best" type="veh_passenger"/>
    <trip id="veh32" depart="70.17" from="300077497#0" to="131473140" departLane="best" type="veh_passenger"/>
    <trip id="veh33" depart="72.37" from="304104749#3" to="515166738#0" departLane="best" type="veh_passenger"/>
    <trip id="veh34" depart="74.56" from="207614898#2" to="1068440004#0" departLane="best" type="veh_passenger"/>
    <trip id="veh35" depart="76.75" from="910093765#4" to="268564474#2" departLane="best" type="veh_passenger"/>
    <trip id="veh36" depart="78.95" from="-347293077#7" to="-267609453#1" departLane="best" type="veh_passenger"/>
    <trip id="veh37" depart="81.14" from="-49710819#4" to="308684356" departLane="best" type="veh_passenger"/>
    <trip id="veh38" depart="83.33" from="506322851#2" to="232003903#0" departLane="best" type="veh_passenger"/>
    <trip id="veh39" depart="85.52" from="-288878945#1" to="196961379#18" departLane="best" type="veh_passenger"/>
    <trip id="veh40" depart="87.72" from="910093765#3" to="288135628#2" departLane="best" type="veh_passenger"/>
    <trip id="veh41" depart="89.91" from="905113648#3" to="51392890" departLane="best" type="veh_passenger"/>
    <trip id="veh42" depart="92.10" from="-1458697052" to="413949761#5" departLane="best" type="veh_passenger"/>
    <trip id="veh43" depart="94.30" from="137195740#0" to="31127861" departLane="best" type="veh_passenger" departSpeed="max"/>
    <trip id="veh44" depart="96.49" from="-506322847#2" to="241518668#0" departLane="best" type="veh_passenger"/>
    <trip id="veh45" depart="98.68" from="252657376" to="593849724" departLane="best" type="veh_passenger"/>
    <trip id="veh46" depart="100.87" from="515156305#0" to="131473142#1" departLane="best" type="veh_passenger"/>
    <trip id="veh47" depart="103.07" from="268564482#0" to="1064294857#1" departLane="best" type="veh_passenger" departSpeed="max"/>
    <trip id="veh48" depart="105.26" from="518982586#3" to="51423093#1" departLane="best" type="veh_passenger"/>
    <trip id="veh49" depart="107.45" from="310620429#1" to="1060223615#2" departLane="best" type="veh_passenger"/>
    <trip id="veh50" depart="109.65" from="506316035#0" to="289004416#4" departLane="best" type="veh_passenger" departSpeed="max"/>
    <trip id="veh51" depart="111.84" from="506322837#2" to="288135628#3" departLane="best" type="veh_passenger"/>
    <trip id="veh52" depart="114.03" from="-1095833475" to="157964878#3" departLane="best" type="veh_passenger"/>
    <trip id="veh53" depart="116.23" from="-198874288#3" to="593841522#0" departLane="best" type="veh_passenger"/>
    <trip id="veh54" depart="118.42" from="515156306" to="506359646#10" departLane="best" type="veh_passenger"/>
    <trip id="veh55" depart="120.61" from="157964878#12" to="-274809899#1" departLane="best" type="veh_passenger"/>
    <trip id="veh56" depart="122.80" from="-325213923#2" to="261898534#1" departLane="best" type="veh_passenger"/>
    <trip id="veh57" depart="125.00" from="-300077497#7" to="49073272#1" departLane="best" type="veh_passenger"/>
    <trip id="veh58" depart="127.19" from="506316035#2" to="-515156296#3" departLane="best" type="veh_passenger"/>
    <trip id="veh59" depart="129.38" from="261898534#3" to="296214428#4" departLane="best" type="veh_passenger"/>
    <trip id="veh60" depart="131.58" from="1334905223#0" to="51423094" departLane="best" type="veh_passenger"/>
    <trip id="veh61" depart="133.77" from="241518671#0" to="1068439991#0" departLane="best" type="veh_passenger"/>
    <trip id="veh62" depart="135.96" from="296493635#0" to="435677310" departLane="best" type="veh_passenger"/>
    <trip id="veh63" depart="138.15" from="244450512#7" to="269789739#13" departLane="best" type="veh_passenger"/>
    <trip id="veh64" depart="140.35" from="-506359646#8" to="1312616705#0" departLane="best" type="veh_passenger"/>
    <trip id="veh65" depart="142.54" from="131473116" to="1068440004#2" departLane="best" type="veh_passenger"/>
    <trip id="veh66" depart="144.73" from="131473113" to="518974807#1" departLane="best" type="veh_passenger"/>
    <trip id="veh67" depart="146.93" from="131473130#4" to="336063376" departLane="best" type="veh_passenger"/>
    <trip id="veh68" depart="149.12" from="1068440006#0" to="-515166747#1" departLane="best" type="veh_passenger"/>
    <trip id="veh69" depart="151.31" from="593849718#2" to="296493637#0" departLane="best" type="veh_passenger"/>
    <trip id="veh70" depart="153.50" from="260882327#2" to="49710827#1" departLane="best" type="veh_passenger"/>
    <trip id="veh71" depart="155.70" from="506322861#0" to="1064294860#9" departLane="best" type="veh_passenger" departSpeed="max"/>
    <trip id="veh72" depart="157.89" from="-43566001#4" to="238526530#2" departLane="best" type="veh_passenger"/>
    <trip id="veh73" depart="160.08" from="241518671#1" to="25715401#3" departLane="best" type="veh_passenger"/>
    <trip id="veh74" depart="162.28" from="49073272#4" to="33679741#5" departLane="best" type="veh_passenger"/>
    <trip id="veh75" depart="164.47" from="910093765#0" to="-48794882#2" departLane="best" type="veh_passenger" departSpeed="max"/>
    <trip id="veh76" depart="166.66" from="217901698#1" to="182973462#0" departLane="best" type="veh_passenger"/>
    <trip id="veh77" depart="168.86" from="51423093#0" to="131473120#0" departLane="best" type="veh_passenger" departSpeed="max"/>
    <trip id="veh78" depart="171.05" from="1064294860#9" to="244450512#1" departLane="best" type="veh_passenger"/>
    <trip id="veh79" depart="173.24" from="241518668#2" to="1320961817#7" departLane="best" type="veh_passenger"/>
    <trip id="veh80" depart="175.43" from="1320961817#0" to="593841520#0" departLane="best" type="veh_passenger"/>
    <trip id="veh81" depart="177.63" from="244456578#0" to="51392891" departLane="best" type="veh_passenger" departSpeed="max"/>
    <trip id="veh82" depart="179.82" from="297240250#10" to="-269505244#1" departLane="best" type="veh_passenger"/>
    <trip id="veh83" depart="182.01" from="910567294" to="506359646#5" departLane="best" type="veh_passenger"/>
    <trip id="veh84" depart="184.21" from="824890622" to="593841520#1" departLane="best" type="veh_passenger" departSpeed="max"/>
    <trip id="veh85" depart="186.40" from="51392889#0" to="1062919958" departLane="best" type="veh_passenger"/>
    <trip id="veh86" depart="188.59" from="26697218#8" to="1068439994#0" departLane="best" type="veh_passenger"/>
    <trip id="veh87" depart="190.78" from="207614902#2" to="-288878945#1" departLane="best" type="veh_passenger"/>
    <trip id="veh88" depart="192.98" from="198001764#1" to="905113651#5" departLane="best" type="veh_passenger"/>
    <trip id="veh89" depart="195.17" from="1334905223#0" to="49710824#1" departLane="best" type="veh_passenger"/>
    <trip id="veh90" depart="197.36" from="256670505#1" to="232106525#0" departLane="best" type="veh_passenger"/>
    <trip id="veh91" depart="199.56" from="668037880#6" to="910093765#3" departLane="best" type="veh_passenger"/>
    <trip id="veh92" depart="201.75" from="297240250#5" to="413949761#0" departLane="best" type="veh_passenger"/>
    <trip id="veh93" depart="203.94" from="1062919952#0" to="1425259624" departLane="best" type="veh_passenger"/>
    <trip id="veh94" depart="206.14" from="296493636#0" to="490391072" departLane="best" type="veh_passenger"/>
    <trip id="veh95" depart="208.33" from="-269789739#11" to="297240250#5" departLane="best" type="veh_passenger"/>
    <trip id="veh96" depart="210.52" from="268564482#2" to="51289046#2" departLane="best" type="veh_passenger"/>
    <trip id="veh97" depart="212.71" from="1062919952#7" to="623877960#0" departLane="best" type="veh_passenger"/>
    <trip id="veh98" depart="214.91" from="-312110133#2" to="1064294860#2" departLane="best" type="veh_passenger"/>
    <trip id="veh99" depart="217.10" from="308526134" to="347293077#5" departLane="best" type="veh_passenger" departSpeed="max"/>
    <trip id="veh100" depart="219.29" from="131473127#1" to="-51392907" departLane="best" type="veh_passenger"/>
    <trip id="veh101" depart="221.49" from="306275221#0" to="304850037#4" departLane="best" type="veh_passenger"/>
    <trip id="veh102" depart="223.68" from="238526531#0" to="297240250#5" departLane="best" type="veh_passenger"/>
    <trip id="veh103" depart="225.87" from="289004415#3" to="593842812#2" departLane="best" type="veh_passenger"/>
    <trip id="veh104" depart="228.06" from="131473131#1" to="198874288#2" departLane="best" type="veh_passenger"/>
    <trip id="veh105" depart="230.26" from="405980657#6" to="1458656966#0" departLane="best" type="veh_passenger"/>
    <trip id="veh106" depart="232.45" from="182334379#3" to="49073247#1" departLane="best" type="veh_passenger"/>
    <trip id="veh107" depart="234.64" from="-308684353#3" to="251277092" departLane="best" type="veh_passenger"/>
    <trip id="veh108" depart="236.84" from="-308684357#1" to="1068439994#0" departLane="best" type="veh_passenger"/>
    <trip id="veh109" depart="239.03" from="1334905223#0" to="593842812#0" departLane="best" type="veh_passenger"/>
    <trip id="veh110" depart="241.22" from="515156319" to="515156291" departLane="best" type="veh_passenger"/>
    <trip id="veh111" depart="243.41" from="196961379#22" to="1062919953#0" departLane="best" type="veh_passenger"/>
    <trip id="veh112" depart="245.61" from="311868391" to="906806102#0" departLane="best" type="veh_passenger"/>
    <trip id="veh113" depart="247.80" from="360851263#3" to="-1322138416" departLane="best" type="veh_passenger"/>
    <trip id="veh114" depart="249.99" from="506359646#2" to="1454572600" departLane="best" type="veh_passenger"/>
    <trip id="veh115" depart="252.19" from="405980642#0" to="593847702#1" departLane="best" type="veh_passenger"/>
    <trip id="veh116" depart="254.38" from="-515166736" to="-506359646#6" departLane="best" type="veh_passenger" departSpeed="max"/>
    <trip id="veh117" depart="256.57" from="-49073242#1" to="296214428#5" departLane="best" type="veh_passenger"/>
    <trip id="veh118" depart="258.77" from="49073242#1" to="1068234512#0" departLane="best" type="veh_passenger"/>
    <trip id="veh119" depart="260.96" from="336063376" to="131473142#3" departLane="best" type="veh_passenger"/>
    <trip id="veh120" depart="263.15" from="268564473#0" to="518974807#1" departLane="best" type="veh_passenger"/>
    <trip id="veh121" depart="265.34" from="51392882" to="-407513573#6" departLane="best" type="veh_passenger" departSpeed="max"/>
    <trip id="veh122" depart="267.54" from="241518671#1" to="1320961817#6" departLane="best" type="veh_passenger"/>
    <trip id="veh123" depart="269.73" from="-131473128" to="49695749#1" departLane="best" type="veh_passenger" departSpeed="max"/>
    <trip id="veh124" depart="271.92" from="336634148#0" to="131473139#0" departLane="best" type="veh_passenger"/>
    <trip id="veh125" depart="274.12" from="241811768#10" to="-1454434224" departLane="best" type="veh_passenger"/>
    <trip id="veh126" depart="276.31" from="518974823#0" to="296214427#3" departLane="best" type="veh_passenger"/>
    <trip id="veh127" depart="278.50" from="51289045#7" to="297240250#5" departLane="best" type="veh_passenger"/>
    <trip id="veh128" depart="280.69" from="1060223612#0" to="-51423105" departLane="best" type="veh_passenger"/>
    <trip id="veh129" depart="282.89" from="157964878#14" to="515166738#3" departLane="best" type="veh_passenger"/>
    <trip id="veh130" depart="285.08" from="506322854#0" to="51392890" departLane="best" type="veh_passenger"/>
    <trip id="veh131" depart="287.27" from="518974811" to="1068439989#2" departLane="best" type="veh_passenger"/>
    <trip id="veh132" depart="289.47" from="1320961817#0" to="-49188554" departLane="best" type="veh_passenger"/>
    <trip id="veh133" depart="291.66" from="506322840#0" to="515156305#0" departLane="best" type="veh_passenger"/>
    <trip id="veh134" depart="293.85" from="229844765#0" to="304850037#8" departLane="best" type="veh_passenger" departSpeed="max"/>
    <trip id="veh135" depart="296.05" from="1062919951#0" to="593841522#2" departLane="best" type="veh_passenger"/>
    <trip id="veh136" depart="298.24" from="51423097#0" to="810568318#14" departLane="best" type="veh_passenger"/>
    <trip id="veh137" depart="300.43" from="506322861#0" to="515156300#2" departLane="best" type="veh_passenger" departSpeed="max"/>
    <trip id="veh138" depart="302.62" from="186602412#3" to="593841522#2" departLane="best" type="veh_passenger"/>
    <trip id="veh139" depart="304.82" from="506322857#5" to="51392910" departLane="best" type="veh_passenger"/>
    <trip id="veh140" depart="307.01" from="506322861#0" to="1320961815#2" departLane="best" type="veh_passenger" departSpeed="max"/>
    <trip id="veh141" depart="309.20" from="506322846#3" to="-506359600" departLane="best" type="veh_passenger"/>
    <trip id="veh142" depart="311.40" from="1312616705#3" to="506322851#3" departLane="best" type="veh_passenger"/>
    <trip id="veh143" depart="313.59" from="25715404#1" to="1458697052" departLane="best" type="veh_passenger"/>
    <trip id="veh144" depart="315.78" from="506322853#2" to="1312616705#3" departLane="best" type="veh_passenger"/>
    <trip id="veh145" depart="317.97" from="-229844763#5" to="1064501314#0" departLane="best" type="veh_passenger"/>
    <trip id="veh146" depart="320.17" from="182973464#5" to="51392919" departLane="best" type="veh_passenger"/>
    <trip id="veh147" depart="322.36" from="810568318#9" to="1320961817#7" departLane="best" type="veh_passenger"/>
    <trip id="veh148" depart="324.55" from="347293077#3" to="198874292#2" departLane="best" type="veh_passenger"/>
    <trip id="veh149" depart="326.75" from="910093765#0" to="289004416#0" departLane="best" type="veh_passenger" departSpeed="max"/>
    <trip id="veh150" depart="328.94" from="593849718#8" to="-506359646#6" departLane="best" type="veh_passenger"/>
    <trip id="veh151" depart="331.13" from="905113648#0" to="1064294857#1" departLane="best" type="veh_passenger"/>
    <trip id="veh152" depart="333.32" from="-49710819#0" to="238526531#2" departLane="best" type="veh_passenger"/>
    <trip id="veh153" depart="335.52" from="308988758#1" to="268564482#1" departLane="best" type="veh_passenger"/>
    <trip id="veh154" depart="337.71" from="198874292#3" to="297240250#10" departLane="best" type="veh_passenger"/>
    <trip id="veh155" depart="339.90" from="-131473109#2" to="593841520#1" departLane="best" type="veh_passenger"/>
    <trip id="veh156" depart="342.10" from="49710758#3" to="336634149" departLane="best" type="veh_passenger"/>
    <trip id="veh157" depart="344.29" from="196961379#14" to="-308988150" departLane="best" type="veh_passenger"/>
    <trip id="veh158" depart="346.48" from="405980642#1" to="182334379#0" departLane="best" type="veh_passenger"/>
    <trip id="veh159" depart="348.68" from="182334379#0" to="50904887#1" departLane="best" type="veh_passenger"/>
    <trip id="veh160" depart="350.87" from="-51392958#1" to="229885650#0" departLane="best" type="veh_passenger"/>
    <trip id="veh161" depart="353.06" from="593849721" to="348745652#0" departLane="best" type="veh_passenger"/>
    <trip id="veh162" depart="355.25" from="518974823#0" to="304104749#7" departLane="best" type="veh_passenger"/>
    <trip id="veh163" depart="357.45" from="154829883#0" to="296214428#0" departLane="best" type="veh_passenger"/>
    <trip id="veh164" depart="359.64" from="-1095833475" to="1409410430#4" departLane="best" type="veh_passenger"/>
    <trip id="veh165" depart="361.83" from="241811768#8" to="297240250#12" departLane="best" type="veh_passenger"/>
    <trip id="veh166" depart="364.03" from="360851263#4" to="25715399#2" departLane="best" type="veh_passenger"/>
    <trip id="veh167" depart="366.22" from="244456578#0" to="1068439994#0" departLane="best" type="veh_passenger" departSpeed="max"/>
    <trip id="veh168" depart="368.41" from="33090413#0" to="182336887#2" departLane="best" type="veh_passenger" departSpeed="max"/>
    <trip id="veh169" depart="370.60" from="506359646#4" to="49073242#1" departLane="best" type="veh_passenger"/>
    <trip id="veh170" depart="372.80" from="407513569#4" to="1312616705#0" departLane="best" type="veh_passenger"/>
    <trip id="veh171" depart="374.99" from="131473142#1" to="260152352#10" departLane="best" type="veh_passenger"/>
    <trip id="veh172" depart="377.18" from="51392891" to="-312110133#0" departLane="best" type="veh_passenger"/>
    <trip id="veh173" depart="379.38" from="238526526#0" to="308684358#0" departLane="best" type="veh_passenger"/>
    <trip id="veh174" depart="381.57" from="1068234499#1" to="387549845#2" departLane="best" type="veh_passenger"/>
    <trip id="veh175" depart="383.76" from="268564474#1" to="131473112#2" departLane="best" type="veh_passenger"/>
    <trip id="veh176" depart="385.96" from="360851263#9" to="-131473130#2" departLane="best" type="veh_passenger"/>
    <trip id="veh177" depart="388.15" from="-49073240" to="232106526#2" departLane="best" type="veh_passenger"/>
    <trip id="veh178" depart="390.34" from="1064294856#0" to="6183255#0" departLane="best" type="veh_passenger"/>
    <trip id="veh179" depart="392.53" from="288135628#3" to="-269505244#0" departLane="best" type="veh_passenger"/>
    <trip id="veh180" depart="394.73" from="1320961817#0" to="51289045#0" departLane="best" type="veh_passenger"/>
    <trip id="veh181" depart="396.92" from="25715399#0" to="506322837#0" departLane="best" type="veh_passenger"/>
    <trip id="veh182" depart="399.11" from="405980655#3" to="906806102#2" departLane="best" type="veh_passenger"/>
    <trip id="veh183" depart="401.31" from="308526134" to="593849718#7" departLane="best" type="veh_passenger" departSpeed="max"/>
    <trip id="veh184" depart="403.50" from="51885100#0" to="304104749#10" departLane="best" type="veh_passenger" departSpeed="max"/>
    <trip id="veh185" depart="405.69" from="50823701#3" to="296214428#0" departLane="best" type="veh_passenger"/>
    <trip id="veh186" depart="407.88" from="518974807#7" to="48794891#1" departLane="best" type="veh_passenger"/>
    <trip id="veh187" depart="410.08" from="261898534#1" to="131473133#3" departLane="best" type="veh_passenger"/>
    <trip id="veh188" depart="412.27" from="506316035#2" to="270025378" departLane="best" type="veh_passenger"/>
    <trip id="veh189" depart="414.46" from="329022967#3" to="1320961817#5" departLane="best" type="veh_passenger"/>
    <trip id="veh190" depart="416.66" from="-309011405" to="1409410430#2" departLane="best" type="veh_passenger" departSpeed="max"/>
    <trip id="veh191" depart="418.85" from="131473118#1" to="387549845#0" departLane="best" type="veh_passenger"/>
    <trip id="veh192" depart="421.04" from="48742279" to="-300077497#7" departLane="best" type="veh_passenger" departSpeed="max"/>
    <trip id="veh193" depart="423.23" from="229885650#0" to="29131308#5" departLane="best" type="veh_passenger"/>
    <trip id="veh194" depart="425.43" from="238526526#2" to="1068234512#0" departLane="best" type="veh_passenger"/>
    <trip id="veh195" depart="427.62" from="238526531#2" to="518974807#0" departLane="best" type="veh_passenger"/>
    <trip id="veh196" depart="429.81" from="304104749#12" to="387549845#2" departLane="best" type="veh_passenger"/>
    <trip id="veh197" depart="432.01" from="51392949" to="49695726" departLane="best" type="veh_passenger"/>
    <trip id="veh198" depart="434.20" from="198874289#2" to="-131473130#3" departLane="best" type="veh_passenger"/>
    <trip id="veh199" depart="436.39" from="196961215#3" to="49073260#3" departLane="best" type="veh_passenger"/>
    <trip id="veh200" depart="438.59" from="51392924#0" to="593849724" departLane="best" type="veh_passenger" departSpeed="max"/>
    <trip id="veh201" depart="440.78" from="238526531#0" to="490391072" departLane="best" type="veh_passenger"/>
    <trip id="veh202" depart="442.97" from="297240245#1" to="303647014#7" departLane="best" type="veh_passenger"/>
    <trip id="veh203" depart="445.16" from="1312616705#0" to="1068440004#0" departLane="best" type="veh_passenger"/>
    <trip id="veh204" depart="447.36" from="244450512#1" to="-241811768#2" departLane="best" type="veh_passenger"/>
    <trip id="veh205" depart="449.55" from="192888504#3" to="348745652#2" departLane="best" type="veh_passenger"/>
    <trip id="veh206" depart="451.74" from="229844765#0" to="1062919957#0" departLane="best" type="veh_passenger" departSpeed="max"/>
    <trip id="veh207" depart="453.94" from="325213923#0" to="-241811768#0" departLane="best" type="veh_passenger"/>
    <trip id="veh208" depart="456.13" from="204408788#1" to="296493635#3" departLane="best" type="veh_passenger"/>
    <trip id="veh209" depart="458.32" from="-241811768#2" to="31127861" departLane="best" type="veh_passenger"/>
    <trip id="veh210" depart="460.51" from="-52242863" to="256670504" departLane="best" type="veh_passenger" departSpeed="max"/>
    <trip id="veh211" depart="462.71" from="-267609453#1" to="196961379#13" departLane="best" type="veh_passenger"/>
    <trip id="veh212" depart="464.90" from="506316035#0" to="196961379#13" departLane="best" type="veh_passenger" departSpeed="max"/>
    <trip id="veh213" depart="467.09" from="49710835#0" to="506359646#10" departLane="best" type="veh_passenger" departSpeed="max"/>
    <trip id="veh214" depart="469.29" from="1320961817#1" to="-329022967#6" departLane="best" type="veh_passenger"/>
    <trip id="veh215" depart="471.48" from="910567294" to="192888504#0" departLane="best" type="veh_passenger"/>
    <trip id="veh216" depart="473.67" from="360018417" to="49710809#5" departLane="best" type="veh_passenger"/>
    <trip id="veh217" depart="475.87" from="360851262#2" to="49073260#6" departLane="best" type="veh_passenger"/>
    <trip id="veh218" depart="478.06" from="663764586#0" to="1068234506#0" departLane="best" type="veh_passenger" departSpeed="max"/>
    <trip id="veh219" depart="480.25" from="-198874289#2" to="1060223615#2" departLane="best" type="veh_passenger"/>
    <trip id="veh220" depart="482.44" from="300077507#0" to="1068439999#1" departLane="best" type="veh_passenger"/>
    <trip id="veh221" depart="484.64" from="48742273" to="49695733#3" departLane="best" type="veh_passenger" departSpeed="max"/>
    <trip id="veh222" depart="486.83" from="1064294847#1" to="303647015#12" departLane="best" type="veh_passenger"/>
    <trip id="veh223" depart="489.02" from="49710819#4" to="-506359646#5" departLane="best" type="veh_passenger"/>
    <trip id="veh224" depart="491.22" from="506359646#5" to="665837888#0" departLane="best" type="veh_passenger"/>
    <trip id="veh225" depart="493.41" from="-49710790" to="-232106525#8" departLane="best" type="veh_passenger"/>
    <trip id="veh226" depart="495.60" from="182334378#0" to="348745652#0" departLane="best" type="veh_passenger"/>
    <trip id="veh227" depart="497.79" from="668037881#0" to="198874289#3" departLane="best" type="veh_passenger"/>
    <trip id="veh228" depart="499.99" from="43566001#0" to="308684354" departLane="best" type="veh_passenger"/>
    <trip id="veh229" depart="502.18" from="-48794882#4" to="49695749#2" departLane="best" type="veh_passenger"/>
    <trip id="veh230" depart="504.37" from="51392892" to="303647014#5" departLane="best" type="veh_passenger"/>
    <trip id="veh231" depart="506.57" from="-506359646#8" to="905113651#0" departLane="best" type="veh_passenger"/>
    <trip id="veh232" depart="508.76" from="241811768#3" to="196961215#9" departLane="best" type="veh_passenger"/>
    <trip id="veh233" depart="510.95" from="269789536#0" to="182973464#0" departLane="best" type="veh_passenger"/>
    <trip id="veh234" depart="513.14" from="51392890" to="506322857#3" departLane="best" type="veh_passenger"/>
    <trip id="veh235" depart="515.34" from="-490391072" to="623877960#0" departLane="best" type="veh_passenger" departSpeed="max"/>
    <trip id="veh236" depart="517.53" from="48794877#1" to="241518668#0" departLane="best" type="veh_passenger"/>
    <trip id="veh237" depart="519.72" from="49695736#2" to="668037874" departLane="best" type="veh_passenger"/>
    <trip id="veh238" depart="521.92" from="1409410430#4" to="506322846#0" departLane="best" type="veh_passenger"/>
    <trip id="veh239" depart="524.11" from="244450512#1" to="440965024" departLane="best" type="veh_passenger"/>
    <trip id="veh240" depart="526.30" from="50823701#3" to="-347293077#2" departLane="best" type="veh_passenger"/>
    <trip id="veh241" depart="528.50" from="515166731" to="131473112#2" departLane="best" type="veh_passenger"/>
    <trip id="veh242" depart="530.69" from="257396390#1" to="303647019#3" departLane="best" type="veh_passenger"/>
    <trip id="veh243" depart="532.88" from="198001764#1" to="-241811768#10" departLane="best" type="veh_passenger"/>
    <trip id="veh244" depart="535.07" from="51392895#1" to="1064294858#4" departLane="best" type="veh_passenger"/>