<?xml version="1.0" encoding="UTF-8"?>

<!-- generated on 2025-09-23 23:41:32.731664 by osmWebWizard.py v1_24_0+0000-b72eb3fabc8
<configuration>
    <net-file value="C:\Users\User\2025-09-23-23-41-00\osm.net.xml.gz"/>
    <output-trip-file value="C:\Users\User\2025-09-23-23-41-00\osm.pedestrian.trips.xml"/>
    <route-file value="C:\Users\User\2025-09-23-23-41-00\osm.pedestrian.rou.xml"/>
    <pedestrians value="True"/>
    <prefix value="ped"/>
    <vehicle-class value="pedestrian"/>
    <fringe-factor value="1"/>
    <seed value="43"/>
    <max-distance value="2000.0"/>
    <insertion-density value="10.0"/>
</configuration>
-->

<routes xmlns:xsi="http://www.w3.org/2001/XMLSchema-instance" xsi:noNamespaceSchemaLocation="http://sumo.dlr.de/xsd/routes_file.xsd">
    <vType id="ped_pedestrian" vClass="pedestrian"/>
    <person id="ped0" depart="0.00" type="ped_pedestrian">
        <walk from="49073226#2" to="49073226#2"/>
    </person>
    <person id="ped1" depart="445.44" type="ped_pedestrian">
        <walk from="241518668#0" to="241518668#0"/>
    </person>
    <person id="ped2" depart="890.88" type="ped_pedestrian">
        <walk from="288878927" to="49073226#2"/>
    </person>
    <person id="ped3" depart="1336.32" type="ped_pedestrian">
        <walk from="288878927" to="241518668#0"/>
    </person>
    <person id="ped4" depart="1781.76" type="ped_pedestrian">
        <walk from="49073226#2" to="288878927"/>
    </person>
    <person id="ped5" depart="2227.20" type="ped_pedestrian">
        <walk from="288878927" to="288878927"/>
    </person>
    <person id="ped6" depart="2672.64" type="ped_pedestrian">
        <walk from="288878927" to="49073226#2"/>
    </person>
    <person id="ped7" depart="3118.08" type="ped_pedestrian">
        <walk from="288878927" to="49073226#2"/>
    </person>
    <person id="ped8" depart="3563.52" type="ped_pedestrian">
        <walk from="288878927" to="241518668#0"/>
    </person>
</routes>
