<?xml version='1.0' encoding='UTF-8'?>
<net xmlns:xsi="http://www.w3.org/2001/XMLSchema-instance" version="1.20" junctionCornerDetail="5" limitTurnSpeed="5.50" avoidOverlap="0" xsi:noNamespaceSchemaLocation="http://sumo.dlr.de/xsd/net_file.xsd">

    <location netOffset="-351603.84,-2770292.37" convBoundary="0.00,0.00,920.86,692.75" origBoundary="121.528958,25.041010,121.538156,25.047321" projParameter="+proj=utm +zone=51 +ellps=WGS84 +datum=WGS84 +units=m +no_defs" />

    <edge id=":1926948273_0" function="internal">
        <lane id=":1926948273_0_0" index="0" disallow="pedestrian tram rail_urban rail rail_electric rail_fast ship container cable_car subway aircraft wheelchair scooter drone" speed="6.30" length="9.04" shape="36.02,180.63 33.92,179.26 31.93,178.95 30.07,179.70 28.33,181.52" />
    </edge>
    <edge id=":1926948273_1" function="internal">
        <lane id=":1926948273_1_0" index="0" disallow="pedestrian tram rail_urban rail rail_electric rail_fast ship container cable_car subway aircraft wheelchair scooter drone" speed="13.89" length="12.06" shape="36.02,180.63 26.90,172.75" />
    </edge>
    <edge id=":1926948273_2" function="internal">
        <lane id=":1926948273_2_0" index="0" disallow="pedestrian tram rail_urban rail rail_electric rail_fast ship container cable_car subway aircraft wheelchair scooter drone" speed="13.89" length="11.98" shape="34.11,171.07 32.28,173.76 31.12,176.22 30.02,178.71 28.33,181.52" />
    </edge>
    <edge id=":1926948273_3" function="internal">
        <lane id=":1926948273_3_0" index="0" disallow="pedestrian tram rail_urban rail rail_electric rail_fast ship container cable_car subway aircraft wheelchair scooter drone" speed="6.27" length="4.46" shape="34.11,171.07 32.24,172.90 30.59,173.70" />
    </edge>
    <edge id=":1926948273_4" function="internal">
        <lane id=":1926948273_4_0" index="0" disallow="pedestrian tram rail_urban rail rail_electric rail_fast ship container cable_car subway aircraft wheelchair scooter drone" speed="6.27" length="3.97" shape="30.59,173.70 30.42,173.79 28.64,173.74 26.90,172.75" />
    </edge>
    <edge id=":1973482489_0" function="internal">
        <lane id=":1973482489_0_0" index="0" disallow="pedestrian tram rail_urban rail rail_electric rail_fast ship container cable_car subway aircraft wheelchair scooter drone" speed="7.29" length="10.00" shape="308.04,148.35 309.75,150.88 311.65,152.47 313.73,153.12 316.00,152.82" />
        <lane id=":1973482489_0_1" index="1" disallow="pedestrian tram rail_urban rail rail_electric rail_fast ship container cable_car subway aircraft wheelchair scooter drone" speed="8.09" length="12.51" shape="308.04,148.35 310.39,152.14 312.66,154.66 314.86,155.90 316.99,155.87" />
    </edge>
    <edge id=":1973482489_2" function="internal">
        <lane id=":1973482489_2_0" index="0" disallow="pedestrian tram rail_urban rail rail_electric rail_fast ship container cable_car subway aircraft wheelchair scooter drone" speed="3.65" length="4.67" shape="308.04,148.35 307.88,149.78 307.36,150.51 306.47,150.52 305.20,149.83" />
    </edge>
    <edge id=":1973482489_3" function="internal">
        <lane id=":1973482489_3_0" index="0" disallow="pedestrian tram rail_urban rail rail_electric rail_fast ship container cable_car subway aircraft wheelchair scooter drone" speed="6.32" length="5.34" shape="302.16,157.31 304.61,156.11 305.93,154.46 305.98,153.96" />
    </edge>
    <edge id=":1973482489_4" function="internal">
        <lane id=":1973482489_4_0" index="0" disallow="pedestrian tram rail_urban rail rail_electric rail_fast ship container cable_car subway aircraft wheelchair scooter drone" speed="13.89" length="14.55" shape="302.16,157.31 316.00,152.82" />
        <lane id=":1973482489_4_1" index="1" disallow="pedestrian tram rail_urban rail rail_electric rail_fast ship container cable_car subway aircraft wheelchair scooter drone" speed="13.89" length="14.55" shape="303.15,160.35 316.99,155.87" />
        <lane id=":1973482489_4_2" index="2" disallow="pedestrian tram rail_urban rail rail_electric rail_fast ship container cable_car subway aircraft wheelchair scooter drone" speed="13.89" length="14.55" shape="304.13,163.39 317.97,158.91" />
        <lane id=":1973482489_4_3" index="3" disallow="pedestrian tram rail_urban rail rail_electric rail_fast ship container cable_car subway aircraft wheelchair scooter drone" speed="13.89" length="14.55" shape="305.12,166.44 318.96,161.95" />
    </edge>
    <edge id=":1973482489_8" function="internal">
        <lane id=":1973482489_8_0" index="0" disallow="pedestrian tram rail_urban rail rail_electric rail_fast ship container cable_car subway aircraft wheelchair scooter drone" speed="6.32" length="4.30" shape="305.98,153.96 306.13,152.37 305.20,149.83" />
    </edge>
    <edge id=":1973482489_c0" function="crossing" crossingEdges="186602412#0 -186602412#3">
        <lane id=":1973482489_c0_0" index="0" allow="pedestrian" speed="2.78" length="6.40" width="4.00" shape="304.74,152.35 310.39,149.35" outlineShape="303.80,150.58 309.46,147.58 309.56,147.56 309.46,147.62 310.34,149.03 311.28,150.15 312.03,150.75 311.33,151.12 305.68,154.12 303.64,154.70 303.77,154.60 304.29,153.81 304.47,152.87 304.31,151.80" />
    </edge>
    <edge id=":1973482489_w0" function="walkingarea">
        <lane id=":1973482489_w0_0" index="0" allow="pedestrian" speed="2.78" length="4.31" width="4.00" shape="315.51,151.30 314.89,149.40 311.22,146.67 309.46,147.62 310.34,149.03 311.28,150.15 312.26,150.93 313.30,151.39 314.38,151.51" />
    </edge>
    <edge id=":1973482489_w1" function="walkingarea">
        <lane id=":1973482489_w1_0" index="0" allow="pedestrian" speed="2.78" length="3.52" width="4.00" shape="303.78,150.56 302.02,151.51 301.05,153.88 301.67,155.78 302.89,155.26 303.77,154.60 304.29,153.81 304.47,152.87 304.31,151.80" />
    </edge>
    <edge id=":2013717680_0" function="internal">
        <lane id=":2013717680_0_0" index="0" disallow="pedestrian tram rail_urban rail rail_electric rail_fast ship container cable_car subway aircraft wheelchair scooter drone" speed="3.65" length="4.67" shape="251.33,-0.10 252.20,-1.25 253.03,-1.60 253.80,-1.15 254.53,0.10" />
    </edge>
    <edge id=":2013717680_w0" function="walkingarea">
        <lane id=":2013717680_w0_0" index="0" allow="pedestrian" speed="2.78" length="8.40" width="2.00" shape="256.12,0.20 258.12,0.32 247.74,-0.32 249.74,-0.20" />
    </edge>
    <edge id=":2081945236_0" function="internal">
        <lane id=":2081945236_0_0" index="0" disallow="pedestrian tram rail_urban rail rail_electric rail_fast ship container cable_car subway aircraft wheelchair scooter drone" speed="6.33" length="8.43" shape="63.74,190.38 62.84,188.38 61.44,187.15 59.54,186.69 57.14,187.00" />
    </edge>
    <edge id=":2081945236_1" function="internal">
        <lane id=":2081945236_1_0" index="0" disallow="pedestrian tram rail_urban rail rail_electric rail_fast ship container cable_car subway aircraft wheelchair scooter drone" speed="13.89" length="10.23" shape="63.74,190.38 62.79,187.49 61.91,185.57 61.02,183.68 60.07,180.85" />
    </edge>
    <edge id=":2081945236_2" function="internal">
        <lane id=":2081945236_2_0" index="0" disallow="pedestrian tram rail_urban rail rail_electric rail_fast ship container cable_car subway aircraft wheelchair scooter drone" speed="6.43" length="8.19" shape="63.74,190.38 63.16,187.53 63.17,185.34 63.76,183.81 64.92,182.94" />
    </edge>
    <edge id=":2081945236_3" function="internal">
        <lane id=":2081945236_3_0" index="0" disallow="pedestrian tram rail_urban rail rail_electric rail_fast ship container cable_car subway aircraft wheelchair scooter drone" speed="13.89" length="9.01" shape="66.03,185.94 63.48,186.60 61.63,186.63 59.76,186.58 57.14,187.00" />
    </edge>
    <edge id=":2081945236_4" function="internal">
        <lane id=":2081945236_4_0" index="0" disallow="pedestrian tram rail_urban rail rail_electric rail_fast ship container cable_car subway aircraft wheelchair scooter drone" speed="6.32" length="8.96" shape="66.03,185.94 64.12,186.19 62.49,185.43 61.14,183.65 60.07,180.85" />
    </edge>
    <edge id=":2444664370_0" function="internal">
        <lane id=":2444664370_0_0" index="0" disallow="pedestrian tram rail_urban rail rail_electric rail_fast ship container cable_car subway aircraft wheelchair scooter drone" speed="13.89" length="10.43" shape="397.75,289.75 398.35,292.45 399.60,294.06 401.03,295.64 402.20,298.25" />
        <lane id=":2444664370_0_1" index="1" disallow="pedestrian tram rail_urban rail rail_electric rail_fast ship container cable_car subway aircraft wheelchair scooter drone" speed="13.89" length="10.43" shape="394.55,289.87 395.17,292.77 396.42,294.52 397.88,296.24 399.10,299.05" />
        <lane id=":2444664370_0_2" index="2" disallow="pedestrian tram rail_urban rail rail_electric rail_fast ship container cable_car subway aircraft wheelchair scooter drone" speed="13.89" length="10.43" shape="391.35,290.00 391.98,293.09 393.25,294.98 394.73,296.84 396.00,299.84" />
    </edge>
    <edge id=":2444664370_w0" function="walkingarea">
        <lane id=":2444664370_w0_0" index="0" allow="pedestrian" speed="2.78" length="8.17" width="2.00" shape="403.75,297.86 405.69,297.36 404.54,289.49 402.54,289.57 402.62,291.35 402.70,292.67 402.82,293.76 403.01,294.83 403.31,296.12" />
    </edge>
    <edge id=":2664674480_0" function="internal">
        <lane id=":2664674480_0_0" index="0" disallow="pedestrian tram rail_urban rail rail_electric rail_fast ship container cable_car subway aircraft wheelchair scooter drone" speed="13.89" length="6.58" shape="278.12,622.60 276.44,623.57 275.40,624.40 274.42,625.33 272.93,626.60" />
    </edge>
    <edge id=":2664674480_1" function="internal">
        <lane id=":2664674480_1_0" index="0" disallow="pedestrian tram rail_urban rail rail_electric rail_fast ship container cable_car subway aircraft wheelchair scooter drone" speed="13.45" length="6.66" shape="278.12,622.60 276.33,623.26 275.00,623.26 273.59,622.99 271.61,622.83" />
    </edge>
    <edge id=":2690921409_0" function="internal">
        <lane id=":2690921409_0_0" index="0" disallow="pedestrian tram rail_urban rail rail_electric rail_fast ship container cable_car subway aircraft wheelchair scooter drone" speed="5.98" length="7.26" shape="571.66,96.24 572.33,98.56 573.28,100.14 574.50,100.99 576.00,101.10" />
    </edge>
    <edge id=":2690921409_1" function="internal">
        <lane id=":2690921409_1_0" index="0" disallow="pedestrian tram rail_urban rail rail_electric rail_fast ship container cable_car subway aircraft wheelchair scooter drone" speed="13.89" length="6.80" shape="569.24,102.23 576.00,101.10" />
        <lane id=":2690921409_1_1" index="1" disallow="pedestrian tram rail_urban rail rail_electric rail_fast ship container cable_car subway aircraft wheelchair scooter drone" speed="13.89" length="6.80" shape="569.79,105.38 576.50,104.26" />
        <lane id=":2690921409_1_2" index="2" disallow="pedestrian tram rail_urban rail rail_electric rail_fast ship container cable_car subway aircraft wheelchair scooter drone" speed="13.89" length="6.80" shape="570.34,108.53 577.00,107.42" />
    </edge>
    <edge id=":2690921409_c0" function="crossing" crossingEdges="420578931#1">
        <lane id=":2690921409_c0_0" index="0" allow="pedestrian" speed="2.78" length="3.20" width="4.00" shape="570.48,98.51 573.62,97.89" outlineShape="570.09,96.55 573.23,95.93 575.75,99.52 575.44,97.54 573.23,95.93 574.01,99.85 570.87,100.47 568.97,100.65 569.52,100.45 569.93,100.05 570.18,99.46 570.30,98.68 570.27,97.71" />
    </edge>
    <edge id=":2690921409_w0" function="walkingarea">
        <lane id=":2690921409_w0_0" index="0" allow="pedestrian" speed="2.78" length="2.08" width="4.00" shape="575.75,99.52 575.44,97.54 573.23,95.93 573.51,97.10 573.85,98.05 574.24,98.76 574.69,99.24 575.19,99.50" />
    </edge>
    <edge id=":2690921409_w1" function="walkingarea">
        <lane id=":2690921409_w1_0" index="0" allow="pedestrian" speed="2.78" length="2.04" width="4.00" shape="570.09,96.55 568.63,98.68 568.97,100.65 569.52,100.45 569.93,100.05 570.18,99.46 570.30,98.68 570.27,97.71" />
    </edge>
    <edge id=":2749340167_0" function="internal">
        <lane id=":2749340167_0_0" index="0" disallow="pedestrian tram rail_urban rail rail_electric rail_fast ship container cable_car subway aircraft wheelchair scooter drone" speed="13.89" length="9.50" shape="79.66,174.32 80.22,177.07 80.38,179.01 80.56,180.94 81.19,183.67" />
    </edge>
    <edge id=":2749340167_1" function="internal">
        <lane id=":2749340167_1_0" index="0" disallow="pedestrian tram rail_urban rail rail_electric rail_fast ship container cable_car subway aircraft wheelchair scooter drone" speed="6.56" length="8.55" shape="79.66,174.32 80.09,177.01 79.84,179.13 78.91,180.68 77.31,181.66" />
    </edge>
    <edge id=":2749340167_2" function="internal">
        <lane id=":2749340167_2_0" index="0" disallow="pedestrian tram rail_urban rail rail_electric rail_fast ship container cable_car subway aircraft wheelchair scooter drone" speed="6.00" length="7.89" shape="76.27,178.63 77.76,178.53 79.07,179.33 80.21,181.05 81.19,183.67" />
    </edge>
    <edge id=":2760755466_0" function="internal">
        <lane id=":2760755466_0_0" index="0" disallow="pedestrian tram rail_urban rail rail_electric rail_fast ship container cable_car subway aircraft wheelchair scooter drone" speed="3.65" length="4.67" shape="119.89,17.88 120.33,16.51 120.99,15.90 121.87,16.07 122.97,17.00" />
    </edge>
    <edge id=":2760755466_w0" function="walkingarea">
        <lane id=":2760755466_w0_0" index="0" allow="pedestrian" speed="2.78" length="8.40" width="2.00" shape="124.51,16.56 126.43,16.01 116.43,18.87 118.35,18.32" />
    </edge>
    <edge id=":2877022366_0" function="internal">
        <lane id=":2877022366_0_0" index="0" disallow="pedestrian tram rail_urban rail rail_electric rail_fast ship container cable_car subway aircraft wheelchair scooter drone" speed="13.89" length="0.30" shape="634.43,91.84 634.69,91.80" />
        <lane id=":2877022366_0_1" index="1" disallow="pedestrian tram rail_urban rail rail_electric rail_fast ship container cable_car subway aircraft wheelchair scooter drone" speed="13.89" length="0.30" shape="634.93,95.00 635.23,94.95" />
        <lane id=":2877022366_0_2" index="2" disallow="pedestrian tram rail_urban rail rail_electric rail_fast ship container cable_car subway aircraft wheelchair scooter drone" speed="13.89" length="0.30" shape="635.43,98.16 635.78,98.10" />
    </edge>
    <edge id=":2877022366_w0" function="walkingarea">
        <lane id=":2877022366_w0_0" index="0" allow="pedestrian" speed="2.78" length="0.22" width="2.00" shape="634.41,90.22 634.07,88.25 633.87,88.28 634.18,90.26" />
    </edge>
    <edge id=":3086736515_0" function="internal">
        <lane id=":3086736515_0_0" index="0" disallow="pedestrian bicycle tram rail_urban rail rail_electric rail_fast ship container cable_car subway aircraft wheelchair scooter drone" speed="3.65" length="4.66" shape="884.06,403.24 885.30,403.97 885.74,404.75 885.38,405.56 884.23,406.42" />
    </edge>
    <edge id=":3086736518_0" function="internal">
        <lane id=":3086736518_0_0" index="0" disallow="pedestrian tram rail_urban rail rail_electric rail_fast ship container cable_car subway aircraft wheelchair scooter drone" speed="12.16" length="13.17" shape="576.65,439.77 574.18,438.81 570.57,438.69 565.81,439.39 563.79,439.92" />
    </edge>
    <edge id=":3086736518_1" function="internal">
        <lane id=":3086736518_1_0" index="0" disallow="pedestrian tram rail_urban rail rail_electric rail_fast ship container cable_car subway aircraft wheelchair scooter drone" speed="13.89" length="13.88" shape="576.65,439.77 573.02,437.74 570.18,436.96 567.38,436.12 563.88,433.92" />
        <lane id=":3086736518_1_1" index="1" disallow="pedestrian tram rail_urban rail rail_electric rail_fast ship container cable_car subway aircraft wheelchair scooter drone" speed="13.89" length="13.88" shape="576.65,439.77 565.90,431.44" />
    </edge>
    <edge id=":3086736518_13" function="internal">
        <lane id=":3086736518_13_0" index="0" disallow="pedestrian tram rail_urban rail rail_electric rail_fast ship container cable_car subway aircraft wheelchair scooter drone" speed="12.16" length="4.00" shape="563.79,439.92 559.91,440.93" />
    </edge>
    <edge id=":3086736518_3" function="internal">
        <lane id=":3086736518_3_0" index="0" disallow="pedestrian bicycle tram rail_urban rail rail_electric rail_fast ship container cable_car subway aircraft wheelchair scooter drone" speed="5.03" length="7.78" shape="585.14,434.37 581.68,435.19 579.42,435.93 578.37,436.59 578.53,437.18" />
    </edge>
    <edge id=":3086736518_4" function="internal">
        <lane id=":3086736518_4_0" index="0" disallow="pedestrian bicycle tram rail_urban rail rail_electric rail_fast ship container cable_car subway aircraft wheelchair scooter drone" speed="13.89" length="26.07" shape="585.14,434.37 559.91,440.93" />
    </edge>
    <edge id=":3086736518_5" function="internal">
        <lane id=":3086736518_5_0" index="0" disallow="pedestrian bicycle tram rail_urban rail rail_electric rail_fast ship container cable_car subway aircraft wheelchair scooter drone" speed="13.89" length="21.51" shape="585.14,434.37 579.23,435.19 572.81,435.43 567.24,435.02 563.88,433.92" />
        <lane id=":3086736518_5_1" index="1" disallow="pedestrian bicycle tram rail_urban rail rail_electric rail_fast ship container cable_car subway aircraft wheelchair scooter drone" speed="13.36" length="19.86" shape="585.14,434.37 580.00,434.85 574.47,434.43 569.47,433.25 565.90,431.44" />
    </edge>
    <edge id=":3086736518_7" function="internal">
        <lane id=":3086736518_7_0" index="0" disallow="pedestrian bicycle tram rail_urban rail rail_electric rail_fast ship container cable_car subway aircraft wheelchair scooter drone" speed="11.97" length="11.74" shape="569.93,426.47 573.71,429.10 577.40,430.77 580.42,431.37" />
    </edge>
    <edge id=":3086736518_8" function="internal">
        <lane id=":3086736518_8_0" index="0" disallow="pedestrian tram rail_urban rail rail_electric rail_fast ship container cable_car subway aircraft wheelchair scooter drone" speed="13.89" length="13.43" shape="567.91,428.95 578.53,437.18" />
    </edge>
    <edge id=":3086736518_9" function="internal">
        <lane id=":3086736518_9_0" index="0" disallow="pedestrian tram rail_urban rail rail_electric rail_fast ship container cable_car subway aircraft wheelchair scooter drone" speed="7.75" length="15.26" shape="567.91,428.95 570.63,432.31 570.21,435.43 566.63,438.30 563.65,439.47" />
    </edge>
    <edge id=":3086736518_14" function="internal">
        <lane id=":3086736518_14_0" index="0" disallow="pedestrian bicycle tram rail_urban rail rail_electric rail_fast ship container cable_car subway aircraft wheelchair scooter drone" speed="11.97" length="4.08" shape="580.42,431.37 580.99,431.48 584.48,431.24" />
    </edge>
    <edge id=":3086736518_15" function="internal">
        <lane id=":3086736518_15_0" index="0" disallow="pedestrian tram rail_urban rail rail_electric rail_fast ship container cable_car subway aircraft wheelchair scooter drone" speed="7.75" length="4.01" shape="563.65,439.47 559.91,440.93" />
    </edge>
    <edge id=":3086736518_10" function="internal">
        <lane id=":3086736518_10_0" index="0" disallow="pedestrian tram rail_urban rail rail_electric rail_fast ship container cable_car subway aircraft wheelchair scooter drone" speed="5.09" length="7.45" shape="558.99,437.88 561.96,436.83 563.77,435.81 564.41,434.85 563.88,433.92" />
    </edge>
    <edge id=":3086736518_11" function="internal">
        <lane id=":3086736518_11_0" index="0" disallow="pedestrian bicycle tram rail_urban rail rail_electric rail_fast ship container cable_car subway aircraft wheelchair scooter drone" speed="13.89" length="26.34" shape="558.99,437.88 584.48,431.24" />
    </edge>
    <edge id=":3086736518_12" function="internal">
        <lane id=":3086736518_12_0" index="0" disallow="pedestrian tram rail_urban rail rail_electric rail_fast ship container cable_car subway aircraft wheelchair scooter drone" speed="13.03" length="19.83" shape="558.99,437.88 564.32,436.72 570.14,436.13 575.28,436.25 578.53,437.18" />
    </edge>
    <edge id=":3086736518_c0" function="crossing" crossingEdges="593847704#0 -593847704#2">
        <lane id=":3086736518_c0_0" index="0" allow="pedestrian" speed="2.78" length="6.40" width="4.00" shape="582.20,430.08 583.51,436.35" outlineShape="584.15,429.67 585.47,435.93 581.06,434.41 585.47,435.93 581.06,434.41 580.08,429.76 582.08,429.91" />
    </edge>
    <edge id=":3086736518_c1" function="crossing" crossingEdges="E0 -E0">
        <lane id=":3086736518_c1_0" index="0" allow="pedestrian" speed="2.78" length="6.39" width="4.00" shape="562.29,441.89 560.44,435.77" outlineShape="560.38,442.47 558.53,436.35 562.49,435.64 561.61,436.72 558.53,436.35 562.49,435.64 564.23,441.39" />
    </edge>
    <edge id=":3086736518_w0" function="walkingarea">
        <lane id=":3086736518_w0_0" index="0" allow="pedestrian" speed="2.78" length="12.83" width="4.00" shape="560.38,442.47 574.54,442.69 575.71,441.07 574.41,440.47 572.61,440.21 570.30,440.27 567.49,440.67 564.19,441.40" />
    </edge>
    <edge id=":3086736518_w1" function="walkingarea">
        <lane id=":3086736518_w1_0" index="0" allow="pedestrian" speed="2.78" length="3.69" width="4.00" shape="579.47,435.88 580.64,434.26 585.47,435.93 581.56,436.76" />
    </edge>
    <edge id=":3086736518_w2" function="walkingarea">
        <lane id=":3086736518_w2_0" index="0" allow="pedestrian" speed="2.78" length="12.03" width="4.00" shape="584.15,429.67 572.19,423.67 570.93,425.22 573.27,426.94 575.55,428.27 577.78,429.21 579.96,429.75 582.08,429.91" />
    </edge>
    <edge id=":3086736518_w3" function="walkingarea">
        <lane id=":3086736518_w3_0" index="0" allow="pedestrian" speed="2.78" length="1.81" width="4.00" shape="562.87,435.17 561.61,436.72 558.53,436.35 559.23,436.21 560.25,436.06 561.35,435.89 562.30,435.69 562.89,435.45" />
    </edge>
    <edge id=":3139322031_0" function="internal">
        <lane id=":3139322031_0_0" index="0" disallow="pedestrian tram rail_urban rail rail_electric rail_fast ship container cable_car subway aircraft wheelchair scooter drone" speed="5.59" length="9.34" shape="53.31,156.84 52.19,154.21 50.75,153.11 48.99,153.55 46.91,155.51" />
    </edge>
    <edge id=":3139322031_1" function="internal">
        <lane id=":3139322031_1_0" index="0" disallow="pedestrian tram rail_urban rail rail_electric rail_fast ship container cable_car subway aircraft wheelchair scooter drone" speed="13.89" length="11.89" shape="53.31,156.84 50.21,145.36" />
    </edge>
    <edge id=":3208478121_0" function="internal">
        <lane id=":3208478121_0_0" index="0" disallow="pedestrian tram rail_urban rail rail_electric rail_fast ship container cable_car subway aircraft wheelchair scooter drone" speed="6.67" length="9.62" shape="747.71,294.19 746.36,293.59 745.48,291.98 745.05,289.35 745.09,285.71" />
    </edge>
    <edge id=":3208478121_1" function="internal">
        <lane id=":3208478121_1_0" index="0" disallow="pedestrian tram rail_urban rail rail_electric rail_fast ship container cable_car subway aircraft wheelchair scooter drone" speed="13.89" length="13.59" shape="740.35,299.07 740.58,295.03 741.00,292.28 741.49,289.54 741.90,285.50" />
        <lane id=":3208478121_1_1" index="1" disallow="pedestrian tram rail_urban rail rail_electric rail_fast ship container cable_car subway aircraft wheelchair scooter drone" speed="13.89" length="13.59" shape="743.55,299.13 743.78,295.13 744.20,292.41 744.68,289.70 745.09,285.71" />
    </edge>
    <edge id=":3208478121_3" function="internal">
        <lane id=":3208478121_3_0" index="0" disallow="pedestrian tram rail_urban rail rail_electric rail_fast ship container cable_car subway aircraft wheelchair scooter drone" speed="6.80" length="10.27" shape="743.55,299.13 743.87,295.48 744.70,292.91 746.04,291.41 747.89,290.99" />
    </edge>
    <edge id=":3208478121_c0" function="crossing" crossingEdges="49073272#3">
        <lane id=":3208478121_c0_0" index="0" allow="pedestrian" speed="2.78" length="6.40" width="4.00" shape="745.18,297.15 738.78,297.05" outlineShape="745.15,299.15 738.75,299.05 736.99,295.02 736.87,296.08 736.75,299.02 738.65,299.05 738.82,295.05 745.21,295.15 747.26,295.81 746.88,295.84 746.27,296.10 745.80,296.56 745.45,297.22 745.23,298.09" />
    </edge>
    <edge id=":3208478121_w0" function="walkingarea">
        <lane id=":3208478121_w0_0" index="0" allow="pedestrian" speed="2.78" length="2.41" width="4.00" shape="745.15,299.15 747.51,297.78 747.62,295.78 746.88,295.84 746.27,296.10 745.80,296.56 745.45,297.22 745.23,298.09" />
    </edge>
    <edge id=":3208478121_w2" function="walkingarea">
        <lane id=":3208478121_w2_0" index="0" allow="pedestrian" speed="2.78" length="11.73" width="4.00" shape="740.30,285.40 738.31,285.27 738.04,288.20 737.73,290.36 737.40,292.14 737.10,293.91 736.87,296.08 736.75,299.02 738.75,299.05 738.87,296.13 739.10,293.98 739.40,292.22 739.73,290.46 740.04,288.31" />
    </edge>
    <edge id=":3208478128_0" function="internal">
        <lane id=":3208478128_0_0" index="0" disallow="pedestrian tram rail_urban rail rail_electric rail_fast ship container cable_car subway aircraft wheelchair scooter drone" speed="13.89" length="10.58" shape="346.74,540.43 349.83,539.76 352.03,539.81 354.26,540.00 357.45,539.75" />
        <lane id=":3208478128_0_1" index="1" disallow="pedestrian tram rail_urban rail rail_electric rail_fast ship container cable_car subway aircraft wheelchair scooter drone" speed="13.89" length="10.58" shape="347.70,543.48 350.66,542.85 352.78,542.93 354.92,543.13 357.98,542.91" />
    </edge>
    <edge id=":3208478128_2" function="internal">
        <lane id=":3208478128_2_0" index="0" disallow="pedestrian tram rail_urban rail rail_electric rail_fast ship container cable_car subway aircraft wheelchair scooter drone" speed="8.90" length="10.96" shape="347.70,543.48 349.84,543.25 352.16,543.85 354.67,545.27 357.38,547.52" />
    </edge>
    <edge id=":3208478132_0" function="internal">
        <lane id=":3208478132_0_0" index="0" disallow="pedestrian tram rail_urban rail rail_electric rail_fast ship container cable_car subway aircraft wheelchair scooter drone" speed="13.89" length="7.69" shape="365.67,563.30 359.03,567.17" />
    </edge>
    <edge id=":3208478132_1" function="internal">
        <lane id=":3208478132_1_0" index="0" disallow="pedestrian tram rail_urban rail rail_electric rail_fast ship container cable_car subway aircraft wheelchair scooter drone" speed="7.87" length="7.52" shape="362.15,560.66 361.93,562.77 361.34,564.55 360.37,566.02 359.03,567.17" />
    </edge>
    <edge id=":3208478132_w0" function="walkingarea">
        <lane id=":3208478132_w0_0" index="0" allow="pedestrian" speed="2.78" length="7.55" width="2.00" shape="359.90,568.51 360.99,570.19 367.47,566.42 366.47,564.69" />
    </edge>
    <edge id=":3431431576_0" function="internal">
        <lane id=":3431431576_0_0" index="0" disallow="pedestrian tram rail_urban rail rail_electric rail_fast ship container cable_car subway aircraft wheelchair scooter drone" speed="11.11" length="7.49" shape="714.17,425.12 706.74,425.68" />
        <lane id=":3431431576_0_1" index="1" disallow="pedestrian tram rail_urban rail rail_electric rail_fast ship container cable_car subway aircraft wheelchair scooter drone" speed="11.11" length="7.49" shape="713.98,421.92 706.48,422.49" />
    </edge>
    <edge id=":3431431576_2" function="internal">
        <lane id=":3431431576_2_0" index="0" disallow="pedestrian tram rail_urban rail rail_electric rail_fast ship container cable_car subway aircraft wheelchair scooter drone" speed="5.67" length="8.26" shape="710.10,431.43 710.46,428.76 710.03,426.92 708.79,425.89 706.74,425.68" />
    </edge>
    <edge id=":5664237422_0" function="internal">
        <lane id=":5664237422_0_0" index="0" disallow="pedestrian bicycle tram rail_urban rail rail_electric rail_fast ship container cable_car subway aircraft wheelchair scooter drone" speed="11.11" length="8.09" shape="886.26,409.53 884.24,411.19 883.04,412.75 881.74,413.96 879.40,414.55" />
        <lane id=":5664237422_0_1" index="1" disallow="pedestrian bicycle tram rail_urban rail rail_electric rail_fast ship container cable_car subway aircraft wheelchair scooter drone" speed="11.11" length="8.09" shape="886.26,409.53 884.34,410.56 882.92,411.05 881.40,411.24 879.21,411.35" />
    </edge>
    <edge id=":619136999_0" function="internal">
        <lane id=":619136999_0_0" index="0" disallow="pedestrian tram rail_urban rail rail_electric rail_fast ship container cable_car subway aircraft wheelchair scooter drone" speed="5.76" length="3.78" shape="799.82,297.67 797.94,297.70 796.62,298.58 796.49,298.86" />
    </edge>
    <edge id=":619136999_1" function="internal">
        <lane id=":619136999_1_0" index="0" disallow="pedestrian tram rail_urban rail rail_electric rail_fast ship container cable_car subway aircraft wheelchair scooter drone" speed="13.89" length="8.26" shape="799.82,297.67 797.41,297.22 795.75,296.96 794.08,296.78 791.64,296.63" />
    </edge>
    <edge id=":619136999_5" function="internal">
        <lane id=":619136999_5_0" index="0" disallow="pedestrian tram rail_urban rail rail_electric rail_fast ship container cable_car subway aircraft wheelchair scooter drone" speed="5.76" length="4.16" shape="796.49,298.86 795.86,300.31 795.65,302.89" />
    </edge>
    <edge id=":619136999_2" function="internal">