<?xml version="1.0" encoding="UTF-8"?>

<!-- generated on 2026-01-21 21:17:31 by Eclipse SUMO GUI Version 1.24.0
<sumoConfiguration xmlns:xsi="http://www.w3.org/2001/XMLSchema-instance" xsi:noNamespaceSchemaLocation="http://sumo.dlr.de/xsd/sumoConfiguration.xsd">

    <input>
        <net-file value="D:\System-of-the-control-traffic-light-chester\data\legacy\ntut_network_split.net.xml"/>
        <route-files value="D:\System-of-the-control-traffic-light-chester\data\legacy\output.rou.xml"/>
    </input>

    <output>
        <output-prefix value="ntut_"/>
        <tripinfo-output value="D:\System-of-the-control-traffic-light-chester\data\legacy\tripinfos.xml"/>
        <statistic-output value="D:\System-of-the-control-traffic-light-chester\data\legacy\stats.xml"/>
    </output>

    <processing>
        <ignore-route-errors value="true"/>
        <tls.actuated.jam-threshold value="30"/>
    </processing>

    <routing>
        <device.rerouting.adaptation-steps value="18"/>
        <device.rerouting.adaptation-interval value="10"/>
    </routing>

    <report>
        <verbose value="true"/>
        <duration-log.statistics value="true"/>
        <no-step-log value="true"/>
    </report>

</sumoConfiguration>
