
<edges>
    <!-- Increase lanes for -1334905223#2 -->
    <!-- Assuming existing has 2 lanes. User wants 1 Straight + 1 Right + 1 Sidewalk = 3 lanes total -->
    <!-- We must specify from/to nodes or just ID? Netconvert might need nodes if creating, but for update? -->
    <!-- If we provide ID, it might match. -->
    <edge id="-1334905223#2" numLanes="3" />
</edges>
