<additional>
    <tlLogic id="joinedS_3086736518_655375232_655375233" type="static" programID="integrated_0" offset="0">
        <param key="tls.ignore-internal-junction-jam" value="true"/>
        <phase duration="99" state="gggggrrggrggrgggggggrgggggggggggrgrggrggggg"/>
        <phase duration="4" state="yyyyyrryyryyryyyyyyyryyyyyyyyyyyryryyryyyyy"/>
        <phase duration="4" state="rrrrrrrrrrrrrrrrrrrrrrrrrrrrrrrrrrrrrrrrrrr"/>
        <phase duration="68" state="rrrrrggrrgrrgrrrrrrrgrrrrrrrrrrrgrgrrrrrrrr"/>
        <phase duration="3" state="rrrrryyrryrryrrrrrrryrrrrrrrrrrryryrrrrrrrr"/>
        <phase duration="5" state="rrrrrrrrrrrrrrrrrrrrrrrrrrrrrrrrrrrrrrrrrrr"/>
        <phase duration="12" state="rrrrrrrrrrrrrrrrrrrrrrrrrrrrrrrrrrrrrgrrrrr"/>
        <phase duration="3" state="rrrrrrrrrrrrrrrrrrrrrrrrrrrrrrrrrrrrryrrrrr"/>
        <phase duration="5" state="rrrrrrrrrrrrrrrrrrrrrrrrrrrrrrrrrrrrrrrrrrr"/>
        <phase duration="3" state="rrrrrrrrrrrrrrrrrrrrrrrrrrrrrrrrrrrrrrrrrrr"/>
    </tlLogic>
    <tlLogic id="joinedS_622618015_622618108_622618112_622618144_622618197_622618230" type="static" programID="integrated_0" offset="0">
        <param key="tls.ignore-internal-junction-jam" value="true"/>
        <phase duration="94" state="gggrrrrrrrrrrrggggggrggrrrrrrrgrggrgggggggggrgrggggrgrgg"/>
        <phase duration="4" state="yyyrrrrrrrrrrryyyyyyryyrrrrrrryryyryyyyyyyyyryryyyyryryy"/>
        <phase duration="2" state="rrrrrrrrrrrrrrrrrrrrrrrrrrrrrrrrrrrrrrrrrrrrrrrrrrrrrrrr"/>
        <phase duration="50" state="rrrrgggggggrgrrrrrrrrrrgggrggrrrrrrrrrrrrrrrgrgrrrrgrgrr"/>
        <phase duration="3" state="rrrryyyyyyyryrrrrrrrrrryyyryyrrrrrrrrrrrrrrryryrrrryryrr"/>
        <phase duration="4" state="rrrrrrrrrrrrrrrrrrrrrrrrrrrrrrrrrrrrrrrrrrrrrrrrrrrrrrrr"/>
        <phase duration="17" state="rrrrrrrrrrrgrgrrrrrrrrrrrrgrrgrrrrrrrrrrrrrrrrrrrrrrrrrr"/>
        <phase duration="4" state="rrrrrrrrrrryryrrrrrrrrrrrryrryrrrrrrrrrrrrrrrrrrrrrrrrrr"/>
        <phase duration="2" state="rrrrrrrrrrrrrrrrrrrrrrrrrrrrrrrrrrrrrrrrrrrrrrrrrrrrrrrr"/>
        <phase duration="5" state="rrrgrrrrrrrrrrrrrrrrgrrrrrrrrrrgrrgrrrrrrrrrrrrrrrrrrrrr"/>
        <phase duration="3" state="rrryrrrrrrrrrrrrrrrryrrrrrrrrrryrryrrrrrrrrrrrrrrrrrrrrr"/>
        <phase duration="5" state="rrrrrrrrrrrrrrrrrrrrrrrrrrrrrrrrrrrrrrrrrrrrrrrrrrrrrrrr"/>
        <phase duration="3" state="rrrrrrrrrrrrrrrrrrrrrrrrrrrrrrrrrrrrrrrrrrrrrrrrrrrrrrrr"/>
        <phase duration="4" state="rrrrrrrrrrrrrrrrrrrrrrrrrrrrrrrrrrrrrrrrrrrrrrrrrrrrrrrr"/>
        <phase duration="4" state="rrrrrrrrrrrrrrrrrrrrrrrrrrrrrrrrrrrrrrrrrrrrrrrrrrrrrrrr"/>
        <phase duration="2" state="rrrrrrrrrrrrrrrrrrrrrrrrrrrrrrrrrrrrrrrrrrrrrrrrrrrrrrrr"/>
    </tlLogic>
    <tlLogic id="joinedS_655375228_655375239_655375240" type="static" programID="integrated_0" offset="0">
        <param key="tls.ignore-internal-junction-jam" value="true"/>
        <phase duration="72" state="rrggrrggg"/>
        <phase duration="3" state="rryyrryyy"/>
        <phase duration="2" state="rrrrrrrrr"/>
        <phase duration="60" state="ggrrrgrrr"/>
        <phase duration="3" state="yyrrryrrr"/>
        <phase duration="2" state="rrrrrrrrr"/>
        <phase duration="8" state="rrrrgrrrr"/>
        <phase duration="3" state="rrrryrrrr"/>
    </tlLogic>
    <tlLogic id="655375241" type="static" programID="integrated_0" offset="0">
        <param key="tls.ignore-internal-junction-jam" value="true"/>
        <phase duration="80" state="G"/>
        <phase duration="3" state="y"/>
        <phase duration="2" state="r"/>
        <phase duration="45" state="r"/>
        <phase duration="3" state="r"/>
        <phase duration="2" state="r"/>
        <phase duration="10" state="r"/>
        <phase duration="3" state="r"/>
        <phase duration="2" state="r"/>
    </tlLogic>
    <tlLogic id="cluster3086736522_655375108_655375247_655375401_#1more" type="static" programID="integrated_0" offset="0">
        <param key="tls.ignore-internal-junction-jam" value="true"/>
        <phase duration="114" state="gggggggrrrrrrrgggggggrrrrrrrrgrg"/>
        <phase duration="3" state="yyyyyyyrrrrrrryyyyyyyrrrrrrrryry"/>
        <phase duration="3" state="rrrrrrrrrrrrrrrrrrrrrrrrrrrrrrrr"/>
        <phase duration="60" state="rrrrrrrggggrrrrrrrrrrggggrrrgrgr"/>
        <phase duration="3" state="rrrrrrryyyyrrrrrrrrrryyyyrrryryr"/>
        <phase duration="2" state="rrrrrrrrrrrrrrrrrrrrrrrrrrrrrrrr"/>
        <phase duration="15" state="rrrrrrrrrrrgggrrrrrrrrrrrgggrrrr"/>
        <phase duration="3" state="rrrrrrrrrrryyyrrrrrrrrrrryyyrrrr"/>
    </tlLogic>
    <tlLogic id="J0" type="static" programID="integrated_0" offset="0">
        <param key="tls.ignore-internal-junction-jam" value="true"/>
        <phase duration="71" state="ggr"/>
        <phase duration="3" state="yyr"/>
        <phase duration="3" state="rrr"/>
        <phase duration="39" state="rrG"/>
        <phase duration="3" state="rry"/>
        <phase duration="3" state="rrr"/>
        <phase duration="32" state="rrr"/>
        <phase duration="3" state="rrr"/>
        <phase duration="3" state="rrr"/>
        <phase duration="12" state="rrr"/>
        <phase duration="3" state="rrr"/>
        <phase duration="2" state="rrr"/>
        <phase duration="9" state="rrr"/>
        <phase duration="3" state="rrr"/>
        <phase duration="3" state="rrr"/>
        <phase duration="3" state="rrr"/>
        <phase duration="3" state="rrr"/>
        <phase duration="2" state="rrr"/>
    </tlLogic>
    <tlLogic id="cluster619136899_619136900_cluster_619136929_619136942" type="static" programID="integrated_0" offset="0">
        <param key="tls.ignore-internal-junction-jam" value="true"/>
        <phase duration="71" state="ggggrrgggggggggrrggggggrrgrrggggggggggggggggggggggggggggggg"/>
        <phase duration="3" state="yyyyrryyyyyyyyyrryyyyyyrryrryyyyyyyyyyyyyyyyyyyyyyyyyyyyyyy"/>
        <phase duration="3" state="rrrrrrrrrrrrrrrrrrrrrrrrrrrrrrrrrrrrrrrrrrrrrrrrrrrrrrrrrrr"/>
        <phase duration="39" state="rrrrrrrrrrrrrrrggrrrrrrrrrggrrrrrrrrrrrrrrrrrrrrrrrrrrrrrrr"/>
        <phase duration="3" state="rrrrrrrrrrrrrrryyrrrrrrrrryyrrrrrrrrrrrrrrrrrrrrrrrrrrrrrrr"/>
        <phase duration="3" state="rrrrrrrrrrrrrrrrrrrrrrrrrrrrrrrrrrrrrrrrrrrrrrrrrrrrrrrrrrr"/>
        <phase duration="32" state="rrrrggrrrrrrrrrrrrrrrrrrrrrrrrrrrrrrrrrrrrrrrrrrrrrrrrrrrrr"/>
        <phase duration="3" state="rrrryyrrrrrrrrrrrrrrrrrrrrrrrrrrrrrrrrrrrrrrrrrrrrrrrrrrrrr"/>
        <phase duration="3" state="rrrrrrrrrrrrrrrrrrrrrrrrrrrrrrrrrrrrrrrrrrrrrrrrrrrrrrrrrrr"/>
        <phase duration="12" state="rrrrrrrrrrrrrrrrrrrrrrrggrrrrrrrrrrrrrrrrrrrrrrrrrrrrrrrrrr"/>
        <phase duration="3" state="rrrrrrrrrrrrrrrrrrrrrrryyrrrrrrrrrrrrrrrrrrrrrrrrrrrrrrrrrr"/>
        <phase duration="2" state="rrrrrrrrrrrrrrrrrrrrrrrrrrrrrrrrrrrrrrrrrrrrrrrrrrrrrrrrrrr"/>
        <phase duration="9" state="rrrrrrrrrrrrrrrrrrrrrrrrrrrrrrrrrrrrrrrrrrrrrrrrrrrrrrrrrrr"/>
        <phase duration="3" state="rrrrrrrrrrrrrrrrrrrrrrrrrrrrrrrrrrrrrrrrrrrrrrrrrrrrrrrrrrr"/>
        <phase duration="3" state="rrrrrrrrrrrrrrrrrrrrrrrrrrrrrrrrrrrrrrrrrrrrrrrrrrrrrrrrrrr"/>
        <phase duration="3" state="rrrrrrrrrrrrrrrrrrrrrrrrrrrrrrrrrrrrrrrrrrrrrrrrrrrrrrrrrrr"/>
        <phase duration="3" state="rrrrrrrrrrrrrrrrrrrrrrrrrrrrrrrrrrrrrrrrrrrrrrrrrrrrrrrrrrr"/>
        <phase duration="2" state="rrrrrrrrrrrrrrrrrrrrrrrrrrrrrrrrrrrrrrrrrrrrrrrrrrrrrrrrrrr"/>
    </tlLogic>
    <tlLogic id="cluster655375336_end_0_655375336_end_1_655375336_end_10_655375336_end_11_#8more" type="static" programID="integrated_0" offset="0">
        <param key="tls.ignore-internal-junction-jam" value="true"/>
        <phase duration="57" state="gggrrrrrrrrrrgggggggggrrrrrrrrrgggggggrgrg"/>
        <phase duration="4" state="yyyrrrrrrrrrryyyyyyyyyrrrrrrrrryyyyyyyryry"/>
        <phase duration="4" state="rrrrrrrrrrrrrrrrrrrrrrrrrrrrrrrrrrrrrrrrrr"/>
        <phase duration="49" state="rrrgggggggrrrrrrrrrrrrggggggrrrrrrrrrrgrgr"/>
        <phase duration="4" state="rrryyyyyyyrrrrrrrrrrrryyyyyyrrrrrrrrrryryr"/>
        <phase duration="4" state="rrrrrrrrrrrrrrrrrrrrrrrrrrrrrrrrrrrrrrrrrr"/>
        <phase duration="47" state="rrrrrrrrrrgggrrrrrrrrrrrrrrrgggrrrrrrrrrrr"/>
        <phase duration="4" state="rrrrrrrrrryyyrrrrrrrrrrrrrrryyyrrrrrrrrrrr"/>
        <phase duration="4" state="rrrrrrrrrrrrrrrrrrrrrrrrrrrrrrrrrrrrrrrrrr"/>
        <phase duration="9" state="rrrrrrrrrrrrrrrrrrrrrrrrrrrrrrrrrrrrrrrrrr"/>
        <phase duration="3" state="rrrrrrrrrrrrrrrrrrrrrrrrrrrrrrrrrrrrrrrrrr"/>
        <phase duration="5" state="rrrrrrrrrrrrrrrrrrrrrrrrrrrrrrrrrrrrrrrrrr"/>
        <phase duration="3" state="rrrrrrrrrrrrrrrrrrrrrrrrrrrrrrrrrrrrrrrrrr"/>
        <phase duration="1" state="rrrrrrrrrrrrrrrrrrrrrrrrrrrrrrrrrrrrrrrrrr"/>
        <phase duration="4" state="rrrrrrrrrrrrrrrrrrrrrrrrrrrrrrrrrrrrrrrrrr"/>
        <phase duration="4" state="rrrrrrrrrrrrrrrrrrrrrrrrrrrrrrrrrrrrrrrrrr"/>
    </tlLogic>
    <tlLogic id="cluster_2038168688_655375573" type="static" programID="integrated_0" offset="0">
        <param key="tls.ignore-internal-junction-jam" value="true"/>
        <phase duration="97" state="ggggggggrrrrggggggggrrrrrgrgr"/>
        <phase duration="3" state="yyyyyyyyrrrryyyyyyyyrrrrryryr"/>
        <phase duration="2" state="rrrrrrrrrrrrrrrrrrrrrrrrrrrrr"/>
        <phase duration="43" state="rrrrrrrrggggrrrrrrrrgggggrgrg"/>
        <phase duration="3" state="rrrrrrrryyyyrrrrrrrryyyyyryry"/>
        <phase duration="2" state="rrrrrrrrrrrrrrrrrrrrrrrrrrrrr"/>
    </tlLogic>
    <tlLogic id="cluster_2528018119_655375236" type="static" programID="integrated_0" offset="0">
        <param key="tls.ignore-internal-junction-jam" value="true"/>
        <phase duration="80" state="rrrrrrggggrrrrrgggggrgrgg"/>
        <phase duration="3" state="rrrrrryyyyrrrrryyyyyryryy"/>
        <phase duration="2" state="rrrrrrrrrrrrrrrrrrrrrrrrr"/>
        <phase duration="67" state="ggrrrrrrrrrgggrrrrrrrrgrr"/>
        <phase duration="3" state="yyrrrrrrrrryyyrrrrrrrryrr"/>
        <phase duration="3" state="rrrrrrrrrrrrrrrrrrrrrrrrr"/>
        <phase duration="17" state="rrggggrrrrrrrrgrrrrrrrrrr"/>
        <phase duration="3" state="rryyyyrrrrrrrryrrrrrrrrrr"/>
        <phase duration="5" state="rrrrrrrrrrgrrrrrrrrrgrrrr"/>
        <phase duration="3" state="rrrrrrrrrryrrrrrrrrryrrrr"/>
        <phase duration="2" state="rrrrrrrrrrrrrrrrrrrrrrrrr"/>
        <phase duration="5" state="rrrrrrrrrrrrrrrrrrrrrrrrr"/>
        <phase duration="3" state="rrrrrrrrrrrrrrrrrrrrrrrrr"/>
        <phase duration="5" state="rrrrrrrrrrrrrrrrrrrrrrrrr"/>
        <phase duration="3" state="rrrrrrrrrrrrrrrrrrrrrrrrr"/>
        <phase duration="2" state="rrrrrrrrrrrrrrrrrrrrrrrrr"/>
    </tlLogic>
    <tlLogic id="joinedS_655375286_cluster_2664674491_655375287_655375288" type="static" programID="integrated_0" offset="0">
        <param key="tls.ignore-internal-junction-jam" value="true"/>
        <phase duration="73" state="gggrrr"/>
        <phase duration="3" state="yyyrrr"/>
        <phase duration="4" state="rrrrrr"/>
        <phase duration="55" state="rrrggg"/>
        <phase duration="3" state="rrryyy"/>
        <phase duration="2" state="rrrrrr"/>
    </tlLogic>
    <tlLogic id="joinedS_3086736519_3086736520_631668954_631668971_#3more" type="static" programID="integrated_0" offset="0">
        <param key="tls.ignore-internal-junction-jam" value="true"/>
        <phase duration="73" state="gggggggggggggggggggggggggggggggggggggggggrrrrgggggrrrrrgggggrr"/>
        <phase duration="3" state="yyyyyyyyyyyyyyyyyyyyyyyyyyyyyyyyyyyyyyyyyrrrryyyyyrrrrryyyyyrr"/>
        <phase duration="4" state="rrrrrrrrrrrrrrrrrrrrrrrrrrrrrrrrrrrrrrrrrrrrrrrrrrrrrrrrrrrrrr"/>
        <phase duration="55" state="rrrrrrrrrrrrrrrrrrrrrrrrrrrrrrrrrrrrrrrrrggggrrrrrgggggrrrrrgg"/>
        <phase duration="3" state="rrrrrrrrrrrrrrrrrrrrrrrrrrrrrrrrrrrrrrrrryyyyrrrrryyyyyrrrrryy"/>
        <phase duration="2" state="rrrrrrrrrrrrrrrrrrrrrrrrrrrrrrrrrrrrrrrrrrrrrrrrrrrrrrrrrrrrrr"/>
    </tlLogic>
    <tlLogic id="cluster_3431431575_4777363357_655375231_6982059025" type="static" programID="integrated_0" offset="0">
        <param key="tls.ignore-internal-junction-jam" value="true"/>
        <phase duration="121" state="gggrggggggggr"/>
        <phase duration="3" state="yyyryyyyyyyyr"/>
        <phase duration="3" state="rrrrrrrrrrrrr"/>
        <phase duration="40" state="rrrrrrrrrrrrg"/>
        <phase duration="3" state="rrrrrrrrrrrry"/>
        <phase duration="2" state="rrrrrrrrrrrrr"/>
        <phase duration="15" state="rrrgrrrrrrrrr"/>
        <phase duration="3" state="rrryrrrrrrrrr"/>
        <phase duration="2" state="rrrrrrrrrrrrr"/>
        <phase duration="5" state="rrrrrrrrrrrrr"/>
        <phase duration="3" state="rrrrrrrrrrrrr"/>
        <phase duration="3" state="rrrrrrrrrrrrr"/>
        <phase duration="3" state="rrrrrrrrrrrrr"/>
    </tlLogic>
    <tlLogic id="cluster_4374470814_4374470816_656132411_656132475" type="static" programID="integrated_0" offset="0">
        <param key="tls.ignore-internal-junction-jam" value="true"/>
        <phase duration="102" state="grrgrrrggg"/>
        <phase duration="3" state="yrryrrryyy"/>
        <phase duration="2" state="rrrrrrrrrr"/>
        <phase duration="81" state="rrrrgrgrrr"/>
        <phase duration="3" state="rrrryryrrr"/>
        <phase duration="3" state="rrrrrrrrrr"/>
        <phase duration="3" state="rggrrrrrrr"/>
        <phase duration="3" state="ryyrrrrrrr"/>
        <phase duration="3" state="rrrrrgrrrr"/>
        <phase duration="3" state="rrrrryrrrr"/>
    </tlLogic>
    <tlLogic id="cluster_5372642442_631668976_631668981_631669076" type="static" programID="integrated_0" offset="0">
        <param key="tls.ignore-internal-junction-jam" value="true"/>
        <phase duration="68" state="gggggggrrrrrggggggggrrrrrggrgr"/>
        <phase duration="4" state="yyyyyyyrrrrryyyyyyyyrrrrryyryr"/>
        <phase duration="3" state="rrrrrrrrrrrrrrrrrrrrrrrrrrrrrr"/>
        <phase duration="68" state="rrrrrrrgggggrrrrrrrrgggggrrgrg"/>
        <phase duration="4" state="rrrrrrryyyyyrrrrrrrryyyyyrryry"/>
        <phase duration="3" state="rrrrrrrrrrrrrrrrrrrrrrrrrrrrrr"/>
    </tlLogic>
    <tlLogic id="cluster_623980090_623980094" type="static" programID="integrated_0" offset="0">
        <param key="tls.ignore-internal-junction-jam" value="true"/>
        <phase duration="90" state="ggggrrrrgggg"/>
        <phase duration="3" state="yyyyrrrryyyy"/>
        <phase duration="2" state="rrrrrrrrrrrr"/>
        <phase duration="86" state="rrrrggrrrrrr"/>
        <phase duration="3" state="rrrryyrrrrrr"/>
        <phase duration="4" state="rrrrrrrrrrrr"/>
        <phase duration="6" state="rrrrrrggrrrr"/>
        <phase duration="3" state="rrrrrryyrrrr"/>
        <phase duration="3" state="rrrrrrrrrrrr"/>
    </tlLogic>
    <tlLogic id="cluster_623980147_623980152" type="static" programID="integrated_0" offset="0">
        <param key="tls.ignore-internal-junction-jam" value="true"/>
        <phase duration="90" state="rrrrrrggggggggrr"/>
        <phase duration="3" state="rrrrrryyyyyyyyrr"/>
        <phase duration="2" state="rrrrrrrrrrrrrrrr"/>
        <phase duration="86" state="gggrrrrrrrrrrrgg"/>
        <phase duration="3" state="yyyrrrrrrrrrrryy"/>
        <phase duration="4" state="rrrrrrrrrrrrrrrr"/>
        <phase duration="6" state="rrrgggrrrrrrrrrr"/>
        <phase duration="3" state="rrryyyrrrrrrrrrr"/>
        <phase duration="3" state="rrrrrrrrrrrrrrrr"/>
    </tlLogic>
    <tlLogic id="GS_cluster_9383263990_9383263991_9383263992_9383263993" type="static" programID="integrated_0" offset="0">
        <param key="tls.ignore-internal-junction-jam" value="true"/>
        <phase duration="75" state="rrrgggggrrrgggggrgrg"/>
        <phase duration="3" state="rrryyyyyrrryyyyyryry"/>
        <phase duration="2" state="rrrrrrrrrrrrrrrrrrrr"/>
        <phase duration="40" state="ggrrrrrrggrrrrrrgrgr"/>
        <phase duration="3" state="yyrrrrrryyrrrrrryryr"/>
        <phase duration="2" state="rrrrrrrrrrrrrrrrrrrr"/>
        <phase duration="20" state="rrgrrrrrrrgrrrrrrrrr"/>
        <phase duration="3" state="rryrrrrrrryrrrrrrrrr"/>
        <phase duration="2" state="rrrrrrrrrrrrrrrrrrrr"/>
    </tlLogic>
</additional>