<additional>
    <tlLogic id="655375241" type="static" programID="0" offset="0">
        <param key="tls.ignore-internal-junction-jam" value="true"/>
        <phase duration="77" state="r"/>
        <phase duration="3" state="r"/>
        <phase duration="3" state="r"/>
        <phase duration="1" state="g"/>
        <phase duration="3" state="y"/>
        <phase duration="4" state="r"/>
        <phase duration="52" state="r"/>
        <phase duration="3" state="r"/>
        <phase duration="4" state="r"/>
    </tlLogic>
    <tlLogic id="GS_cluster_9383263990_9383263991_9383263992_9383263993" type="static" programID="0" offset="0">
        <param key="tls.ignore-internal-junction-jam" value="true"/>
        <phase duration="37" state="gGGrrrrrgGGrrrrrrGrG"/>
        <phase duration="3" state="yyyrrrrryyyrrrrrryry"/>
        <phase duration="2" state="rrrrrrrrrrrrrrrrrrrr"/>
        <phase duration="23" state="rrrgGGGGrrrgGGGGGrGr"/>
        <phase duration="3" state="rrryyyyyrrryyyyyyryr"/>
        <phase duration="2" state="rrrrrrrrrrrrrrrrrrrr"/>
        <phase duration="75" state="gGGrrrrrgGGrrrrrrGrG"/>
        <phase duration="3" state="yyyrrrrryyyrrrrrryry"/>
        <phase duration="2" state="rrrrrrrrrrrrrrrrrrrr"/>
    </tlLogic>
    <tlLogic id="J0" type="static" programID="0" offset="0">
        <param key="tls.ignore-internal-junction-jam" value="true"/>
        <phase duration="68" state="rrr"/>
        <phase duration="3" state="rrr"/>
        <phase duration="3" state="rrr"/>
        <phase duration="4" state="GGG"/>
        <phase duration="3" state="yyy"/>
        <phase duration="2" state="rrr"/>
        <phase duration="44" state="rrr"/>
        <phase duration="3" state="rrr"/>
        <phase duration="3" state="rrr"/>
        <phase duration="14" state="GGG"/>
        <phase duration="3" state="yyy"/>
        <phase duration="2" state="rrr"/>
        <phase duration="10" state="rrr"/>
        <phase duration="3" state="rrr"/>
        <phase duration="3" state="rrr"/>
        <phase duration="6" state="GGG"/>
        <phase duration="3" state="yyy"/>
        <phase duration="3" state="rrr"/>
    </tlLogic>
    <tlLogic id="cluster3086736522_655375108_655375247_655375401_#1more" type="static" programID="0" offset="0">
        <param key="tls.ignore-internal-junction-jam" value="true"/>
        <phase duration="20" state="rrrrrrrgggGggGrrrrrrrgggGggGrGrG"/>
        <phase duration="3" state="rrrrrrryyyyyyyrrrrrrryyyyyyyryry"/>
        <phase duration="2" state="rrrrrrrrrrrrrrrrrrrrrrrrrrrrrrrr"/>
        <phase duration="88" state="GGGgGGGrrrrrrrgGGgGGGrrrrrrrGrGr"/>
        <phase duration="3" state="yyyyyyyrrrrrrryyyyyyyrrrrrrryryr"/>
        <phase duration="4" state="rrrrrrrrrrrrrrrrrrrrrrrrrrrrrrrr"/>
        <phase duration="5" state="rrrrrrrgggGggGrrrrrrrgggGggGrGrG"/>
        <phase duration="3" state="rrrrrrryyyyyyyrrrrrrryyyyyyyryry"/>
        <phase duration="2" state="rrrrrrrrrrrrrrrrrrrrrrrrrrrrrrrr"/>
        <phase duration="54" state="GGGgGGGrrrrrrrgGGgGGGrrrrrrrGrGr"/>
        <phase duration="3" state="yyyyyyyrrrrrrryyyyyyyrrrrrrryryr"/>
        <phase duration="3" state="rrrrrrrrrrrrrrrrrrrrrrrrrrrrrrrr"/>
    </tlLogic>
    <tlLogic id="cluster619136899_619136900_cluster_619136929_619136942" type="static" programID="0" offset="0">
        <param key="tls.ignore-internal-junction-jam" value="true"/>
        <phase duration="68" state="grgrGGrrgGrgrrrrrrrrrrrrrrrGrrrrrgGGgGGGGrrrrrrrrGGGgggrgrr"/>
        <phase duration="3" state="yryryyrryyryrrrrrrrrrrrrrrryrrrrryyyyyyyyrrrrrrrryyyyyyryrr"/>
        <phase duration="3" state="rrrrrrrrrrrrrrrrrrrrrrrrrrrrrrrrrrrrrrrrrrrrrrrrrrrrrrrrrrr"/>
        <phase duration="4" state="rrrrrrrrrrrrrrrggrrrrrrGGrGrGrrrgrrrrrrrrgGGGGGGGrrrrrrgrgg"/>
        <phase duration="3" state="rrrrrrrrrrrrrrryyrrrrrryyryryrrryrrrrrrrryyyyyyyyrrrrrryryy"/>
        <phase duration="2" state="rrrrrrrrrrrrrrrrrrrrrrrrrrrrrrrrrrrrrrrrrrrrrrrrrrrrrrrrrrr"/>
        <phase duration="44" state="grgrGGrrgGrgrrrrrrrrrrrrrrrGrrrrrgGGgGGGGrrrrrrrrGGGgggrgrr"/>
        <phase duration="3" state="yryryyrryyryrrrrrrrrrrrrrrryrrrrryyyyyyyyrrrrrrrryyyyyyryrr"/>
        <phase duration="3" state="rrrrrrrrrrrrrrrrrrrrrrrrrrrrrrrrrrrrrrrrrrrrrrrrrrrrrrrrrrr"/>
        <phase duration="14" state="rrrrrrrrrrrrrrrggrrrrrrGGrGrGrrrgrrrrrrrrgGGGGGGGrrrrrrgrgg"/>
        <phase duration="3" state="rrrrrrrrrrrrrrryyrrrrrryyryryrrryrrrrrrrryyyyyyyyrrrrrryryy"/>
        <phase duration="2" state="rrrrrrrrrrrrrrrrrrrrrrrrrrrrrrrrrrrrrrrrrrrrrrrrrrrrrrrrrrr"/>
        <phase duration="10" state="grgrGGrrgGrgrrrrrrrrrrrrrrrGrrrrrgGGgGGGGrrrrrrrrGGGgggrgrr"/>
        <phase duration="3" state="yryryyrryyryrrrrrrrrrrrrrrryrrrrryyyyyyyyrrrrrrrryyyyyyryrr"/>
        <phase duration="3" state="rrrrrrrrrrrrrrrrrrrrrrrrrrrrrrrrrrrrrrrrrrrrrrrrrrrrrrrrrrr"/>
        <phase duration="6" state="rrrrrrrrrrrrrrrggrrrrrrGGrGrGrrrgrrrrrrrrgGGGGGGGrrrrrrgrgg"/>
        <phase duration="3" state="rrrrrrrrrrrrrrryyrrrrrryyryryrrryrrrrrrrryyyyyyyyrrrrrryryy"/>
        <phase duration="3" state="rrrrrrrrrrrrrrrrrrrrrrrrrrrrrrrrrrrrrrrrrrrrrrrrrrrrrrrrrrr"/>
    </tlLogic>
    <tlLogic id="cluster655375336_end_0_655375336_end_1_655375336_end_10_655375336_end_11_#8more" type="static" programID="0" offset="0">
        <param key="tls.ignore-internal-junction-jam" value="true"/>
        <phase duration="5" state="rrrgggGGGGggGrrrrrrrrrgggGGGggGrrrrrrrrGrG"/>
        <phase duration="3" state="rrryyyyyyyyyyrrrrrrrrryyyyyyyyyrrrrrrrryry"/>
        <phase duration="2" state="rrrrrrrrrrrrrrrrrrrrrrrrrrrrrrrrrrrrrrrrrr"/>
        <phase duration="37" state="GGGrrrrrrrrrrgggGGGGGGrrrrrrrrrggGggGGGrGr"/>
        <phase duration="4" state="yyyrrrrrrrrrryyyyyyyyyrrrrrrrrryyyyyyyyryr"/>
        <phase duration="4" state="rrrrrrrrrrrrrrrrrrrrrrrrrrrrrrrrrrrrrrrrrr"/>
        <phase duration="45" state="rrrgggGGGGggGrrrrrrrrrgggGGGggGrrrrrrrrGrG"/>
        <phase duration="4" state="rrryyyyyyyyyyrrrrrrrrryyyyyyyyyrrrrrrrryry"/>
        <phase duration="4" state="rrrrrrrrrrrrrrrrrrrrrrrrrrrrrrrrrrrrrrrrrr"/>
        <phase duration="9" state="GGGrrrrrrrrrrgggGGGGGGrrrrrrrrrggGggGGGrGr"/>
        <phase duration="3" state="yyyrrrrrrrrrryyyyyyyyyrrrrrrrrryyyyyyyyryr"/>
        <phase duration="2" state="rrrrrrrrrrrrrrrrrrrrrrrrrrrrrrrrrrrrrrrrrr"/>
        <phase duration="51" state="rrrgggGGGGggGrrrrrrrrrgggGGGggGrrrrrrrrGrG"/>
        <phase duration="4" state="rrryyyyyyyyyyrrrrrrrrryyyyyyyyyrrrrrrrryry"/>
        <phase duration="4" state="rrrrrrrrrrrrrrrrrrrrrrrrrrrrrrrrrrrrrrrrrr"/>
        <phase duration="1" state="GGGrrrrrrrrrrgggGGGGGGrrrrrrrrrggGggGGGrGr"/>
        <phase duration="4" state="yyyrrrrrrrrrryyyyyyyyyrrrrrrrrryyyyyyyyryr"/>
        <phase duration="4" state="rrrrrrrrrrrrrrrrrrrrrrrrrrrrrrrrrrrrrrrrrr"/>
    </tlLogic>
    <tlLogic id="cluster_2038168688_655375573" type="static" programID="0" offset="0">
        <param key="tls.ignore-internal-junction-jam" value="true"/>
        <phase duration="3" state="gggGGGGGrrrrggggGGGGrrrrrrGrG"/>
        <phase duration="3" state="yyyyyyyyrrrryyyyyyyyrrrrrryry"/>
        <phase duration="2" state="rrrrrrrrrrrrrrrrrrrrrrrrrrrrr"/>
        <phase duration="88" state="rrrrrrrrgGGGrrrrrrrrgGGGGGrGr"/>
        <phase duration="3" state="rrrrrrrryyyyrrrrrrrryyyyyyryr"/>
        <phase duration="2" state="rrrrrrrrrrrrrrrrrrrrrrrrrrrrr"/>
        <phase duration="5" state="gggGGGGGrrrrggggGGGGrrrrrrGrG"/>
        <phase duration="3" state="yyyyyyyyrrrryyyyyyyyrrrrrryry"/>
        <phase duration="2" state="rrrrrrrrrrrrrrrrrrrrrrrrrrrrr"/>
        <phase duration="44" state="rrrrrrrrgGGGrrrrrrrrgGGGGGrGr"/>
        <phase duration="3" state="rrrrrrrryyyyrrrrrrrryyyyyyryr"/>
        <phase duration="2" state="rrrrrrrrrrrrrrrrrrrrrrrrrrrrr"/>
    </tlLogic>
    <tlLogic id="cluster_2528018119_655375236" type="static" programID="0" offset="0">
        <param key="tls.ignore-internal-junction-jam" value="true"/>
        <phase duration="69" state="rrrrrrgGGGGrrrrgGGGGGrGrG"/>
        <phase duration="3" state="rrrrrryyyyyrrrryyyyyyryry"/>
        <phase duration="2" state="rrrrrrrrrrrrrrrrrrrrrrrrr"/>
        <phase duration="5" state="gGGGGGrrrrrgGGGrrrrrrGrGr"/>
        <phase duration="3" state="yyyyyyrrrrryyyyrrrrrryryr"/>
        <phase duration="2" state="rrrrrrrrrrrrrrrrrrrrrrrrr"/>
        <phase duration="5" state="rrrrrrgGGGGrrrrgGGGGGrGrG"/>
        <phase duration="3" state="rrrrrryyyyyrrrryyyyyyryry"/>
        <phase duration="2" state="rrrrrrrrrrrrrrrrrrrrrrrrr"/>
        <phase duration="63" state="gGGGGGrrrrrgGGGrrrrrrGrGr"/>
        <phase duration="3" state="yyyyyyrrrrryyyyrrrrrryryr"/>
        <phase duration="4" state="rrrrrrrrrrrrrrrrrrrrrrrrr"/>
        <phase duration="5" state="rrrrrrgGGGGrrrrgGGGGGrGrG"/>
        <phase duration="3" state="rrrrrryyyyyrrrryyyyyyryry"/>
        <phase duration="2" state="rrrrrrrrrrrrrrrrrrrrrrrrr"/>
        <phase duration="11" state="gGGGGGrrrrrgGGGrrrrrrGrGr"/>
        <phase duration="3" state="yyyyyyrrrrryyyyrrrrrryryr"/>
        <phase duration="2" state="rrrrrrrrrrrrrrrrrrrrrrrrr"/>
    </tlLogic>
    <tlLogic id="cluster_3431431575_4777363357_655375231_6982059025" type="static" programID="0" offset="0">
        <param key="tls.ignore-internal-junction-jam" value="true"/>
        <phase duration="3" state="rrrrrrrrrrrrG"/>
        <phase duration="3" state="rrrrrrrrrrrry"/>
        <phase duration="2" state="rrrrrrrrrrrrr"/>
        <phase duration="115" state="gGGGgGGgggGGr"/>
        <phase duration="3" state="yyyyyyyyyyyyr"/>
        <phase duration="3" state="rrrrrrrrrrrrr"/>
        <phase duration="11" state="rrrrrrrrrrrrG"/>
        <phase duration="3" state="rrrrrrrrrrrry"/>
        <phase duration="2" state="rrrrrrrrrrrrr"/>
        <phase duration="40" state="gGGGgGGgggGGr"/>
        <phase duration="3" state="yyyyyyyyyyyyr"/>
        <phase duration="2" state="rrrrrrrrrrrrr"/>
    </tlLogic>
    <tlLogic id="cluster_4374470814_4374470816_656132411_656132475" type="static" programID="0" offset="0">
        <param key="tls.ignore-internal-junction-jam" value="true"/>
        <phase duration="3" state="rrrrgGGrrr"/>
        <phase duration="3" state="rrrryyyrrr"/>
        <phase duration="2" state="rrrrrrrrrr"/>
        <phase duration="92" state="GGGrrrrggG"/>
        <phase duration="3" state="yyyrrrryyy"/>
        <phase duration="2" state="rrrrrrrrrr"/>
        <phase duration="5" state="rrrrgGGrrr"/>
        <phase duration="3" state="rrrryyyrrr"/>
        <phase duration="2" state="rrrrrrrrrr"/>
        <phase duration="69" state="GGGrrrrggG"/>
        <phase duration="3" state="yyyrrrryyy"/>
        <phase duration="3" state="rrrrrrrrrr"/>
    </tlLogic>
    <tlLogic id="cluster_5372642442_631668976_631668981_631669076" type="static" programID="0" offset="0">
        <param key="tls.ignore-internal-junction-jam" value="true"/>
        <phase duration="5" state="gGGGGGrrrrrrrgGGGGGrrrrrrrrGrG"/>
        <phase duration="3" state="yyyyyyrrrrrrryyyyyyrrrrrrrryry"/>
        <phase duration="2" state="rrrrrrrrrrrrrrrrrrrrrrrrrrrrrr"/>
        <phase duration="68" state="rrrrrrrgGGGGrrrrrrrrgGGGGrGrGr"/>
        <phase duration="3" state="rrrrrrryyyyyrrrrrrrryyyyyryryr"/>
        <phase duration="4" state="rrrrrrrrrrrrrrrrrrrrrrrrrrrrrr"/>
        <phase duration="5" state="gGGGGGrrrrrrrgGGGGGrrrrrrrrGrG"/>
        <phase duration="3" state="yyyyyyrrrrrrryyyyyyrrrrrrrryry"/>
        <phase duration="2" state="rrrrrrrrrrrrrrrrrrrrrrrrrrrrrr"/>
        <phase duration="58" state="rrrrrrrgGGGGrrrrrrrrgGGGGrGrGr"/>
        <phase duration="3" state="rrrrrrryyyyyrrrrrrrryyyyyryryr"/>
        <phase duration="4" state="rrrrrrrrrrrrrrrrrrrrrrrrrrrrrr"/>
    </tlLogic>
    <tlLogic id="cluster_623980090_623980094" type="static" programID="0" offset="0">
        <param key="tls.ignore-internal-junction-jam" value="true"/>
        <phase duration="85" state="rrrrgGGGrrrr"/>
        <phase duration="3" state="rrrryyyyrrrr"/>
        <phase duration="2" state="rrrrrrrrrrrr"/>
        <phase duration="6" state="gGGGrrrrGGGG"/>
        <phase duration="3" state="yyyyrrrryyyy"/>
        <phase duration="3" state="rrrrrrrrrrrr"/>
        <phase duration="71" state="rrrrgGGGrrrr"/>
        <phase duration="3" state="rrrryyyyrrrr"/>
        <phase duration="4" state="rrrrrrrrrrrr"/>
    </tlLogic>
    <tlLogic id="cluster_623980147_623980152" type="static" programID="0" offset="0">
        <param key="tls.ignore-internal-junction-jam" value="true"/>
        <phase duration="85" state="gGGGGGrrrrrrrrrG"/>
        <phase duration="3" state="yyyyyyrrrrrrrrry"/>
        <phase duration="2" state="rrrrrrrrrrrrrrrr"/>
        <phase duration="6" state="rrrrrrGGGGgGGGGr"/>
        <phase duration="3" state="rrrrrryyyyyyyyyr"/>
        <phase duration="3" state="rrrrrrrrrrrrrrrr"/>
        <phase duration="71" state="gGGGGGrrrrrrrrrG"/>
        <phase duration="3" state="yyyyyyrrrrrrrrry"/>
        <phase duration="4" state="rrrrrrrrrrrrrrrr"/>
    </tlLogic>
    <tlLogic id="joinedS_3086736518_655375232_655375233" type="static" programID="0" offset="0">
        <param key="tls.ignore-internal-junction-jam" value="true"/>
        <phase duration="3" state="rrrrrrrrrrrrrrrrrrrrrrrrrrrrrrrrrrrGGGGGGGG"/>
        <phase duration="3" state="rrrrrrrrrrrrrrrrrrrrrrrrrrrrrrrrrrryyyyyyyy"/>
        <phase duration="2" state="rrrrrrrrrrrrrrrrrrrrrrrrrrrrrrrrrrrrrrrrrrr"/>
        <phase duration="87" state="gGGgGGGgGGgGGggGggGGGGGGGggGGggGGGGrrrrrrrr"/>
        <phase duration="4" state="yyyyyyyyyyyyyyyyyyyyyyyyyyyyyyyyyyyrrrrrrrr"/>
        <phase duration="4" state="rrrrrrrrrrrrrrrrrrrrrrrrrrrrrrrrrrrrrrrrrrr"/>
        <phase duration="14" state="rrrrrrrrrrrrrrrrrrrrrrrrrrrrrrrrrrrGGGGGGGG"/>
        <phase duration="3" state="rrrrrrrrrrrrrrrrrrrrrrrrrrrrrrrrrrryyyyyyyy"/>
        <phase duration="2" state="rrrrrrrrrrrrrrrrrrrrrrrrrrrrrrrrrrrrrrrrrrr"/>
        <phase duration="60" state="gGGgGGGgGGgGGggGggGGGGGGGggGGggGGGGrrrrrrrr"/>
        <phase duration="3" state="yyyyyyyyyyyyyyyyyyyyyyyyyyyyyyyyyyyrrrrrrrr"/>
        <phase duration="5" state="rrrrrrrrrrrrrrrrrrrrrrrrrrrrrrrrrrrrrrrrrrr"/>
    </tlLogic>
    <tlLogic id="joinedS_3086736519_3086736520_631668954_631668971_#3more" type="static" programID="0" offset="0">
        <param key="tls.ignore-internal-junction-jam" value="true"/>
        <phase duration="38" state="rrrrrrrrrrrrrrrrrrrrrrrrrrrrrrrrrrrgGGGGGrrrrgGGGGrrrrrrrrrrGG"/>
        <phase duration="3" state="rrrrrrrrrrrrrrrrrrrrrrrrrrrrrrrrrrryyyyyyrrrryyyyyrrrrrrrrrryy"/>
        <phase duration="2" state="rrrrrrrrrrrrrrrrrrrrrrrrrrrrrrrrrrrrrrrrrrrrrrrrrrrrrrrrrrrrrr"/>
        <phase duration="73" state="rrrrrrrrrrrrrrrrrrrrrrrrrrrrrrrrrrrrrrrrrgGGGrrrrrgGGGGrrrrGrr"/>
        <phase duration="3" state="rrrrrrrrrrrrrrrrrrrrrrrrrrrrrrrrrrrrrrrrryyyyrrrrryyyyyrrrryrr"/>
        <phase duration="4" state="rrrrrrrrrrrrrrrrrrrrrrrrrrrrrrrrrrrrrrrrrrrrrrrrrrrrrrrrrrrrrr"/>
        <phase duration="50" state="rrrrrrrrrrrrrrrrrrrrrrrrrrrrrrrrrrrgGGGGGrrrrgGGGGrrrrrrrrrrGG"/>
        <phase duration="3" state="rrrrrrrrrrrrrrrrrrrrrrrrrrrrrrrrrrryyyyyyrrrryyyyyrrrrrrrrrryy"/>
        <phase duration="4" state="rrrrrrrrrrrrrrrrrrrrrrrrrrrrrrrrrrrrrrrrrrrrrrrrrrrrrrrrrrrrrr"/>
    </tlLogic>
    <tlLogic id="joinedS_622618015_622618108_622618112_622618144_622618197_622618230" type="static" programID="0" offset="0">
        <param key="tls.ignore-internal-junction-jam" value="true"/>
        <phase duration="5" state="rrrrgGgGGGGGGGrrrrrrrrrgGGGgGGrrrrrrrrGrGrGrrrrrGrGrrrrG"/>
        <phase duration="3" state="rrrryyyyyyyyyyrrrrrrrrryyyyyyyrrrrrrrryryryrrrrryryrrrry"/>
        <phase duration="2" state="rrrrrrrrrrrrrrrrrrrrrrrrrrrrrrrrrrrrrrrrrrrrrrrrrrrrrrrr"/>
        <phase duration="14" state="gGGGrrrrrrrrrrgGGGGGGgGrrrrrrrGGGGGgGGrrrrrrGrGrrrrGrGrr"/>
        <phase duration="4" state="yyyyrrrrrrrrrryyyyyyyyyrrrrrrryyyyyyyyrrrrrryryrrrryryrr"/>
        <phase duration="2" state="rrrrrrrrrrrrrrrrrrrrrrrrrrrrrrrrrrrrrrrrrrrrrrrrrrrrrrrr"/>
        <phase duration="78" state="rrrrgGgGGGGGGGrrrrrrrrrgGGGgGGrrrrrrrrGrGrGrrrrrGrGrrrrG"/>
        <phase duration="4" state="rrrryyyyyyyyyyrrrrrrrrryyyyyyyrrrrrrrryryryrrrrryryrrrry"/>
        <phase duration="2" state="rrrrrrrrrrrrrrrrrrrrrrrrrrrrrrrrrrrrrrrrrrrrrrrrrrrrrrrr"/>
        <phase duration="4" state="gGGGrrrrrrrrrrgGGGGGGgGrrrrrrrGGGGGgGGrrrrrrGrGrrrrGrGrr"/>
        <phase duration="4" state="yyyyrrrrrrrrrryyyyyyyyyrrrrrrryyyyyyyyrrrrrryryrrrryryrr"/>
        <phase duration="2" state="rrrrrrrrrrrrrrrrrrrrrrrrrrrrrrrrrrrrrrrrrrrrrrrrrrrrrrrr"/>
        <phase duration="5" state="rrrrgGgGGGGGGGrrrrrrrrrgGGGgGGrrrrrrrrGrGrGrrrrrGrGrrrrG"/>
        <phase duration="3" state="rrrryyyyyyyyyyrrrrrrrrryyyyyyyrrrrrrrryryryrrrrryryrrrry"/>
        <phase duration="2" state="rrrrrrrrrrrrrrrrrrrrrrrrrrrrrrrrrrrrrrrrrrrrrrrrrrrrrrrr"/>
        <phase duration="49" state="gGGGrrrrrrrrrrgGGGGGGgGrrrrrrrGGGGGgGGrrrrrrGrGrrrrGrGrr"/>
        <phase duration="3" state="yyyyrrrrrrrrrryyyyyyyyyrrrrrrryyyyyyyyrrrrrryryrrrryryrr"/>
        <phase duration="4" state="rrrrrrrrrrrrrrrrrrrrrrrrrrrrrrrrrrrrrrrrrrrrrrrrrrrrrrrr"/>
    </tlLogic>
    <tlLogic id="joinedS_655375228_655375239_655375240" type="static" programID="0" offset="0">
        <param key="tls.ignore-internal-junction-jam" value="true"/>
        <phase duration="7" state="rrgGGrrrrrrGrrrrrrrrrgGGGGGggg"/>
        <phase duration="3" state="rryyyrrrrrryrrrrrrrrryyyyyyyyy"/>
        <phase duration="2" state="rrrrrrrrrrrrrrrrrrrrrrrrrrrrrr"/>
        <phase duration="64" state="gGrrrGgGGGGrrrgggrGGGrrrrrrrrr"/>
        <phase duration="3" state="yyrrryyyyyyrrryyyryyyrrrrrrrrr"/>
        <phase duration="2" state="rrrrrrrrrrrrrrrrrrrrrrrrrrrrrr"/>
        <phase duration="5" state="rrgGGrrrrrrGrrrrrrrrrgGGGGGggg"/>
        <phase duration="3" state="rryyyrrrrrryrrrrrrrrryyyyyyyyy"/>
        <phase duration="2" state="rrrrrrrrrrrrrrrrrrrrrrrrrrrrrr"/>
        <phase duration="64" state="gGrrrGgGGGGrrrgggrGGGrrrrrrrrr"/>
        <phase duration="3" state="yyrrryyyyyyrrryyyryyyrrrrrrrrr"/>
        <phase duration="2" state="rrrrrrrrrrrrrrrrrrrrrrrrrrrrrr"/>
    </tlLogic>
    <tlLogic id="joinedS_655375286_cluster_2664674491_655375287_655375288" type="static" programID="0" offset="0">
        <param key="tls.ignore-internal-junction-jam" value="true"/>
        <phase duration="38" state="GgGrrr"/>
        <phase duration="3" state="yyyrrr"/>
        <phase duration="2" state="rrrrrr"/>
        <phase duration="73" state="rrrGGG"/>
        <phase duration="3" state="rrryyy"/>
        <phase duration="4" state="rrrrrr"/>
        <phase duration="50" state="GgGrrr"/>
        <phase duration="3" state="yyyrrr"/>
        <phase duration="4" state="rrrrrr"/>
    </tlLogic>

    <!-- WAUT: Auto-switch from default (0) to custom plan (1) at simulation start -->
    </additional>