<types>
    <type id="highway.primary" priority="9" numLanes="2" speed="22.22" allow="passenger"/>
    <type id="highway.primary_link" priority="7" numLanes="1" speed="16.67" allow="passenger"/>
    <type id="highway.secondary" priority="8" numLanes="2" speed="19.44" allow="passenger"/>
    <type id="highway.secondary_link" priority="6" numLanes="1" speed="13.89" allow="passenger"/>
    <type id="highway.tertiary" priority="6" numLanes="2" speed="13.89" allow="passenger"/>
    <type id="highway.tertiary_link" priority="5" numLanes="1" speed="11.11" allow="passenger"/>
    <type id="highway.residential" priority="4" numLanes="1" speed="8.33" allow="passenger"/>
    <type id="highway.living_street" priority="3" numLanes="1" speed="5.56" allow="passenger"/>
    <type id="highway.unclassified" priority="5" numLanes="1" speed="8.33" allow="passenger"/>
</types>
