<?xml version="1.0" encoding="UTF-8"?>

<!-- generated on 2026-02-28 18:21:23 by Eclipse SUMO duarouter Version 1.24.0
<duarouterConfiguration xmlns:xsi="http://www.w3.org/2001/XMLSchema-instance" xsi:noNamespaceSchemaLocation="http://sumo.dlr.de/xsd/duarouterConfiguration.xsd">

    <input>
        <net-file value="./data/ntut_network_split.net copy.xml"/>
        <route-files value="./data/final_output.rou.alt.xml"/>
        <junction-taz value="true"/>
    </input>

    <output>
        <output-file value="./data/final_output.rou.xml"/>
        <alternatives-output value="./data/final_output.rou.alt.xml.tmp"/>
    </output>

    <processing>
        <max-alternatives value="3"/>
        <weights.random-factor value="12"/>
    </processing>

    <report>
        <ignore-errors value="true"/>
    </report>

</duarouterConfiguration>
-->

<routes xmlns:xsi="http://www.w3.org/2001/XMLSchema-instance" xsi:noNamespaceSchemaLocation="http://sumo.dlr.de/xsd/routes_file.xsd">
    <vType id="Car0" length="5.00" vClass="passenger" color="green"/>
    <vehicle id="Flow0.0" type="Car0" depart="0.00" fromTaz="cluster_3431431575_4777363357_655375231_6982059025" toTaz="3196998953">
        <route edges="51362429#0 593847701 E0 -594658757#2 303647015#0"/>
    </vehicle>
    <vType id="Car1" length="5.00" vClass="passenger" color="green"/>
    <vehicle id="Flow1.0" type="Car1" depart="0.00" fromTaz="631668923" toTaz="622618112">
        <route edges="1068234498#0 288135626#0 1068234499#0 -593847703#3 -593847705 593847704#0 49073272#0"/>
    </vehicle>
    <vType id="Car10" length="5.00" vClass="passenger" color="green"/>
    <vehicle id="Flow10.0" type="Car10" depart="0.00" fromTaz="2760755470" toTaz="655375241">
        <route edges="30620492#0 30620492#1 506322840#0"/>
    </vehicle>
    <vType id="Car11" length="5.00" vClass="passenger" color="green"/>
    <vehicle id="Flow11.0" type="Car11" depart="0.00" fromTaz="cluster619136880_619136881_cluster_4510442270_5296993511_5296993513_619136931_#1more" toTaz="6252193077">
        <route edges="196961377#0 196961377#3 593849718#0"/>
    </vehicle>
    <vType id="Car12" length="5.00" vClass="passenger" color="green"/>
    <vehicle id="Flow12.0" type="Car12" depart="0.00" fromTaz="cluster_2664674491_655375287_655375288" toTaz="2664674489">
        <route edges="260881642#0"/>
    </vehicle>
    <vType id="Car13" length="5.00" vClass="passenger" color="green"/>
    <vehicle id="Flow13.0" type="Car13" depart="0.00" fromTaz="cluster_9383263990_9383263991_9383263992_9383263993" toTaz="3139323041">
        <route edges="506322841#1 198001764#0 182336887#2"/>
    </vehicle>
    <vType id="Car14" length="5.00" vClass="passenger" color="green"/>
    <vehicle id="Flow14.0" type="Car14" depart="0.00" fromTaz="3139322031" toTaz="1926948273">
        <route edges="182336887#0"/>
    </vehicle>
    <vType id="Car15" length="5.00" vClass="passenger" color="green"/>
    <vehicle id="Flow15.0" type="Car15" depart="0.00" fromTaz="cluster_9383263990_9383263991_9383263992_9383263993" toTaz="cluster_9383263990_9383263991_9383263992_9383263993">
        <route edges="506322841#1 182336886 30620492#1"/>
    </vehicle>
    <vType id="Car16" length="5.00" vClass="passenger" color="green"/>
    <vehicle id="Flow16.0" type="Car16" depart="0.00" fromTaz="622618015" toTaz="622618230">
        <route edges="49073274 593852346"/>
    </vehicle>
    <vType id="Car17" length="5.00" vClass="passenger" color="green"/>
    <vehicle id="Flow17.0" type="Car17" depart="0.00" fromTaz="3086736515" toTaz="622618144">
        <route edges="593852343 906806086#0"/>
    </vehicle>
    <vType id="Car18" length="5.00" vClass="passenger" color="green"/>
    <vehicle id="Flow18.0" type="Car18" depart="0.00" fromTaz="cluster619136880_619136881_cluster_4510442270_5296993511_5296993513_619136931_#1more" toTaz="622618165">
        <route edges="48794887#0"/>
    </vehicle>
    <vType id="Car19" length="5.00" vClass="passenger" color="green"/>
    <vehicle id="Flow19.0" type="Car19" depart="0.00" fromTaz="cluster3086736522_655375108_655375247_655375401_#1more" toTaz="cluster655375228_655375240">
        <route edges="594658762#0"/>
    </vehicle>
    <vType id="Car2" length="5.00" vClass="passenger" color="green"/>
    <vehicle id="Flow2.0" type="Car2" depart="0.00" fromTaz="1926948273" toTaz="1926948228">
        <route edges="261898534"/>
    </vehicle>
    <vType id="Car20" length="5.00" vClass="passenger" color="green"/>
    <vehicle id="Flow20.0" type="Car20" depart="0.00" fromTaz="cluster_5372642442_631668976_631668981_631669076" toTaz="2690921409">
        <route edges="506322851#0"/>
    </vehicle>
    <vType id="Car21" length="5.00" vClass="passenger" color="green"/>
    <vehicle id="Flow21.0" type="Car21" depart="0.00" fromTaz="656132499" toTaz="cluster_2664674491_655375287_655375288">
        <route edges="51289045#4 260881641"/>
    </vehicle>
    <vType id="Car22" length="5.00" vClass="passenger" color="green"/>
    <vehicle id="Flow22.0" type="Car22" depart="0.00" fromTaz="631668818" toTaz="631668923">
        <route edges="49695733#2"/>
    </vehicle>
    <vType id="Car23" length="5.00" vClass="passenger" color="green"/>
    <vehicle id="Flow23.0" type="Car23" depart="0.00" fromTaz="619137000" toTaz="655374967">
        <route edges="51362359#0"/>
    </vehicle>
    <vType id="Car24" length="5.00" vClass="passenger" color="green"/>
    <vehicle id="Flow24.0" type="Car24" depart="0.00" fromTaz="3208478132" toTaz="656132498">
        <route edges="51289045#3 51392936#0"/>
    </vehicle>
    <vType id="Car25" length="5.00" vClass="passenger" color="green"/>
    <vehicle id="Flow25.0" type="Car25" depart="0.00" fromTaz="3208478128" toTaz="3208478132">
        <route edges="314800955"/>
    </vehicle>
    <vType id="Car26" length="5.00" vClass="passenger" color="green"/>
    <vehicle id="Flow26.0" type="Car26" depart="0.00" fromTaz="cluster_623980090_623980094" toTaz="7782558675">
        <route edges="196961379#0"/>
    </vehicle>
    <vType id="Car27" length="5.00" vClass="passenger" color="green"/>
    <vehicle id="Flow27.0" type="Car27" depart="0.00" fromTaz="622618197" toTaz="622618015">
        <route edges="593849721"/>
    </vehicle>
    <vType id="Car28" length="5.00" vClass="passenger" color="green"/>
    <vehicle id="Flow28.0" type="Car28" depart="0.00" fromTaz="3139322031" toTaz="7199509892">
        <route edges="506322841#4"/>
    </vehicle>
    <vType id="Car29" length="5.00" vClass="passenger" color="green"/>
    <vehicle id="Flow29.0" type="Car29" depart="0.00" fromTaz="655375286" toTaz="cluster655375336_end_0_655375336_end_1_655375336_end_10_655375336_end_11_#8more">
        <route edges="244450512#0 51362431 594658760#0"/>
    </vehicle>
    <vType id="Car3" length="5.00" vClass="passenger" color="green"/>
    <vehicle id="Flow3.0" type="Car3" depart="0.00" fromTaz="cluster655375228_655375240" toTaz="3208478132">
        <route edges="-E1 -300077497#8 -300077497#5 182334378#0 232003903#0 51289045#1"/>
    </vehicle>
    <vType id="Car30" length="5.00" vClass="passenger" color="green"/>
    <vehicle id="Flow30.0" type="Car30" depart="0.00" fromTaz="622618112" toTaz="622618197">
        <route edges="593847702#3"/>
    </vehicle>
    <vType id="Car31" length="5.00" vClass="passenger" color="green"/>
    <vehicle id="Flow31.0" type="Car31" depart="0.00" fromTaz="3092676101" toTaz="cluster_623980090_623980094">
        <route edges="268564473#0 288878927"/>
    </vehicle>
    <vType id="Car32" length="5.00" vClass="passenger" color="green"/>
    <vehicle id="Flow32.0" type="Car32" depart="0.00" fromTaz="2081945236" toTaz="3139322031">
        <route edges="506322841#3"/>
    </vehicle>
    <vType id="Car4" length="5.00" vClass="passenger" color="green"/>
    <vehicle id="Flow4.0" type="Car4" depart="0.00" fromTaz="cluster655375336_end_0_655375336_end_1_655375336_end_10_655375336_end_11_#8more" toTaz="656132476">
        <route edges="232003903#0 51289045#1 51289045#3 51289045#4 51289045#5 -260882327"/>
    </vehicle>
    <vType id="Car5" length="5.00" vClass="passenger" color="green"/>
    <vehicle id="Flow5.0" type="Car5" depart="0.00" fromTaz="622618230" toTaz="2013717678">
        <route edges="593849715 49073272#0 49073272#1 49073272#3 49073272#4 353392316#0 288135628#0"/>
    </vehicle>
    <vType id="Car6" length="5.00" vClass="passenger" color="green"/>
    <vehicle id="Flow6.0" type="Car6" depart="0.00" fromTaz="7782558678" toTaz="3431431576">
        <route edges="196961215#0 196961215#2 241518668#0 336063376#0"/>
    </vehicle>
    <vType id="Car7" length="5.00" vClass="passenger" color="green"/>
    <vehicle id="Flow7.0" type="Car7" depart="0.00" fromTaz="6251747844" toTaz="cluster_5372642442_631668976_631668981_631669076">
        <route edges="-260882327 -545977624#2 593842812#0 593842812#2 593844221#0 49695736#0 182334379#0"/>
    </vehicle>
    <vType id="Car8" length="5.00" vClass="passenger" color="green"/>
    <vehicle id="Flow8.0" type="Car8" depart="0.00" fromTaz="631668821" toTaz="631668821">
        <route edges="-49695726 49695726"/>
    </vehicle>
    <vType id="Car9" length="5.00" vClass="passenger" color="green"/>
    <vehicle id="Flow9.0" type="Car9" depart="0.00" fromTaz="622618144" toTaz="2713733789">
        <route edges="593852345#0 196961378#1"/>
    </vehicle>
    <vehicle id="Flow20.1" type="Car20" depart="3.30" fromTaz="cluster_5372642442_631668976_631668981_631669076" toTaz="2690921409">
        <route edges="506322851#0"/>
    </vehicle>
    <vehicle id="Flow15.1" type="Car15" depart="3.57" fromTaz="cluster_9383263990_9383263991_9383263992_9383263993" toTaz="cluster_9383263990_9383263991_9383263992_9383263993">
        <route edges="506322841#1 182336886 30620492#1"/>
    </vehicle>
    <vehicle id="Flow6.1" type="Car6" depart="3.70" fromTaz="7782558678" toTaz="3431431576">
        <route edges="196961215#0 196961215#2 288878926#0 593849711#0"/>
    </vehicle>
    <vehicle id="Flow3.1" type="Car3" depart="4.11" fromTaz="cluster655375228_655375240" toTaz="3208478132">
        <route edges="-E1 -300077497#8 -300077497#5 182334378#0 232003903#0 51289045#1"/>
    </vehicle>
    <vehicle id="Flow11.1" type="Car11" depart="4.23" fromTaz="cluster619136880_619136881_cluster_4510442270_5296993511_5296993513_619136931_#1more" toTaz="6252193077">
        <route edges="196961377#0 196961377#3 593849718#0"/>
    </vehicle>
    <vehicle id="Flow18.1" type="Car18" depart="4.23" fromTaz="cluster619136880_619136881_cluster_4510442270_5296993511_5296993513_619136931_#1more" toTaz="622618165">
        <route edges="48794887#0"/>
    </vehicle>
    <vehicle id="Flow8.1" type="Car8" depart="4.41" fromTaz="631668821" toTaz="631668821">
        <route edges="-49695726 49695726"/>
    </vehicle>
    <vehicle id="Flow0.1" type="Car0" depart="4.92" fromTaz="cluster_3431431575_4777363357_655375231_6982059025" toTaz="3196998953">
        <route edges="51362429#0 593847701 E0 -594658757#2 303647015#0"/>
    </vehicle>
    <vehicle id="Flow1.1" type="Car1" depart="5.36" fromTaz="631668923" toTaz="622618112">
        <route edges="1068234498#0 288135626#0 1068234499#0 -593847703#3 593847702#0"/>
    </vehicle>
    <vehicle id="Flow13.1" type="Car13" depart="5.56" fromTaz="cluster_9383263990_9383263991_9383263992_9383263993" toTaz="3139323041">
        <route edges="506322841#1 198001764#0 182336887#2"/>
    </vehicle>
    <vehicle id="Flow5.1" type="Car5" depart="5.66" fromTaz="622618230" toTaz="2013717678">
        <route edges="593849715 -593847704#2 593847705 593847703#0 182334379#0 288135628#0"/>
    </vehicle>
    <vehicle id="Flow20.2" type="Car20" depart="6.59" fromTaz="cluster_5372642442_631668976_631668981_631669076" toTaz="2690921409">
        <route edges="506322851#0"/>
    </vehicle>
    <vehicle id="Flow15.2" type="Car15" depart="7.14" fromTaz="cluster_9383263990_9383263991_9383263992_9383263993" toTaz="cluster_9383263990_9383263991_9383263992_9383263993">
        <route edges="506322841#1 182336886 30620492#1"/>
    </vehicle>
    <vehicle id="Flow10.1" type="Car10" depart="7.32" fromTaz="2760755470" toTaz="655375241">
        <route edges="30620492#0 30620492#1 506322840#0"/>
    </vehicle>
    <vehicle id="Flow6.2" type="Car6" depart="7.41" fromTaz="7782558678" toTaz="3431431576">
        <route edges="196961215#0 196961215#2 288878926#0 593849711#0"/>
    </vehicle>
    <vehicle id="Flow27.1" type="Car27" depart="7.69" fromTaz="622618197" toTaz="622618015">
        <route edges="593849721"/>
    </vehicle>
    <vehicle id="Flow3.2" type="Car3" depart="8.22" fromTaz="cluster655375228_655375240" toTaz="3208478132">
        <route edges="-E1 -300077497#8 -300077497#5 182334378#0 232003903#0 51289045#1"/>
    </vehicle>
    <vehicle id="Flow11.2" type="Car11" depart="8.45" fromTaz="cluster619136880_619136881_cluster_4510442270_5296993511_5296993513_619136931_#1more" toTaz="6252193077">
        <route edges="196961377#0 196961377#3 593849718#0"/>
    </vehicle>
    <vehicle id="Flow18.2" type="Car18" depart="8.45" fromTaz="cluster619136880_619136881_cluster_4510442270_5296993511_5296993513_619136931_#1more" toTaz="622618165">
        <route edges="48794887#0"/>
    </vehicle>
    <vehicle id="Flow8.2" type="Car8" depart="8.82" fromTaz="631668821" toTaz="631668821">
        <route edges="-49695726 49695726"/>
    </vehicle>
    <vehicle id="Flow0.2" type="Car0" depart="9.84" fromTaz="cluster_3431431575_4777363357_655375231_6982059025" toTaz="3196998953">
        <route edges="51362429#0 593847701 E0 1334904386#0 303647015#0"/>
    </vehicle>
    <vehicle id="Flow20.3" type="Car20" depart="9.89" fromTaz="cluster_5372642442_631668976_631668981_631669076" toTaz="2690921409">
        <route edges="506322851#0"/>
    </vehicle>
    <vehicle id="Flow16.1" type="Car16" depart="10.34" fromTaz="622618015" toTaz="622618230">
        <route edges="49073274 593852346"/>
    </vehicle>
    <vehicle id="Flow15.3" type="Car15" depart="10.71" fromTaz="cluster_9383263990_9383263991_9383263992_9383263993" toTaz="cluster_9383263990_9383263991_9383263992_9383263993">
        <route edges="506322841#1 182336886 30620492#1"/>
    </vehicle>
    <vehicle id="Flow1.2" type="Car1" depart="10.71" fromTaz="631668923" toTaz="622618112">
        <route edges="1068234498#0 288135626#0 1068234499#0 -593847703#3 -593847705 593847704#0 49073272#0"/>
    </vehicle>
    <vehicle id="Flow7.1" type="Car7" depart="10.71" fromTaz="6251747844" toTaz="cluster_5372642442_631668976_631668981_631669076">
        <route edges="-260882327 -545977624#2 593842812#0 593842812#2 593844221#0 49695736#0 182334379#0"/>
    </vehicle>
    <vehicle id="Flow6.3" type="Car6" depart="11.11" fromTaz="7782558678" toTaz="3431431576">
        <route edges="196961215#0 196961215#2 241518668#0 336063376#0"/>
    </vehicle>
    <vehicle id="Flow13.2" type="Car13" depart="11.11" fromTaz="cluster_9383263990_9383263991_9383263992_9383263993" toTaz="3139323041">
        <route edges="506322841#1 506322841#3 182336887#0 182336887#2"/>
    </vehicle>
    <vehicle id="Flow5.2" type="Car5" depart="11.32" fromTaz="622618230" toTaz="2013717678">
        <route edges="593849715 49073272#0 49073272#1 49073272#3 49073272#4 353392316#0 288135628#0"/>
    </vehicle>
    <vehicle id="Flow4.1" type="Car4" depart="12.00" fromTaz="cluster655375336_end_0_655375336_end_1_655375336_end_10_655375336_end_11_#8more" toTaz="656132476">
        <route edges="232003903#0 51289045#1 51289045#3 51289045#4 51289045#5 -260882327"/>
    </vehicle>
    <vehicle id="Flow3.3" type="Car3" depart="12.33" fromTaz="cluster655375228_655375240" toTaz="3208478132">
        <route edges="-E1 263217604#0 360843888 244450512#4 314800955"/>
    </vehicle>
    <vehicle id="Flow11.3" type="Car11" depart="12.68" fromTaz="cluster619136880_619136881_cluster_4510442270_5296993511_5296993513_619136931_#1more" toTaz="6252193077">
        <route edges="196961377#0 196961377#3 593849718#0"/>
    </vehicle>
    <vehicle id="Flow18.3" type="Car18" depart="12.68" fromTaz="cluster619136880_619136881_cluster_4510442270_5296993511_5296993513_619136931_#1more" toTaz="622618165">
        <route edges="48794887#0"/>
    </vehicle>
    <vehicle id="Flow20.4" type="Car20" depart="13.18" fromTaz="cluster_5372642442_631668976_631668981_631669076" toTaz="2690921409">
        <route edges="506322851#0"/>
    </vehicle>
    <vehicle id="Flow8.3" type="Car8" depart="13.23" fromTaz="631668821" toTaz="631668821">
        <route edges="-49695726 49695726"/>
    </vehicle>
    <vehicle id="Flow9.1" type="Car9" depart="13.64" fromTaz="622618144" toTaz="2713733789">
        <route edges="593852345#0 196961378#1"/>
    </vehicle>
    <vehicle id="Flow15.4" type="Car15" depart="14.28" fromTaz="cluster_9383263990_9383263991_9383263992_9383263993" toTaz="cluster_9383263990_9383263991_9383263992_9383263993">
        <route edges="506322841#1 182336886 30620492#1"/>
    </vehicle>
    <vehicle id="Flow10.2" type="Car10" depart="14.63" fromTaz="2760755470" toTaz="655375241">
        <route edges="30620492#0 30620492#1 506322840#0"/>
    </vehicle>
    <vehicle id="Flow0.3" type="Car0" depart="14.75" fromTaz="cluster_3431431575_4777363357_655375231_6982059025" toTaz="3196998953">
        <route edges="51362429#0 593847701 E0 1334904386#0 303647015#0"/>
    </vehicle>
    <vehicle id="Flow6.4" type="Car6" depart="14.81" fromTaz="7782558678" toTaz="3431431576">
        <route edges="196961215#0 196961215#2 241518668#0 336063376#0"/>
    </vehicle>
    <vehicle id="Flow27.2" type="Car27" depart="15.38" fromTaz="622618197" toTaz="622618015">
        <route edges="593849721"/>
    </vehicle>
    <vehicle id="Flow1.3" type="Car1" depart="16.07" fromTaz="631668923" toTaz="622618112">
        <route edges="1068234498#0 288135626#0 1068234499#0 -593847703#3 593847702#0"/>
    </vehicle>
    <vehicle id="Flow3.4" type="Car3" depart="16.44" fromTaz="cluster655375228_655375240" toTaz="3208478132">
        <route edges="-E1 263217604#0 360843888 244450512#4 314800955"/>
    </vehicle>
    <vehicle id="Flow20.5" type="Car20" depart="16.48" fromTaz="cluster_5372642442_631668976_631668981_631669076" toTaz="2690921409">
        <route edges="506322851#0"/>
    </vehicle>
    <vehicle id="Flow13.3" type="Car13" depart="16.67" fromTaz="cluster_9383263990_9383263991_9383263992_9383263993" toTaz="3139323041">
        <route edges="506322841#1 506322841#3 182336887#0 182336887#2"/>
    </vehicle>
    <vehicle id="Flow11.4" type="Car11" depart="16.90" fromTaz="cluster619136880_619136881_cluster_4510442270_5296993511_5296993513_619136931_#1more" toTaz="6252193077">
        <route edges="196961377#0 196961377#3 593849718#0"/>
    </vehicle>
    <vehicle id="Flow18.4" type="Car18" depart="16.90" fromTaz="cluster619136880_619136881_cluster_4510442270_5296993511_5296993513_619136931_#1more" toTaz="622618165">
        <route edges="48794887#0"/>
    </vehicle>
    <vehicle id="Flow5.3" type="Car5" depart="16.98" fromTaz="622618230" toTaz="2013717678">
        <route edges="593849715 49073272#0 49073272#1 49073272#3 49073272#4 353392316#0 288135628#0"/>
    </vehicle>
    <vehicle id="Flow8.4" type="Car8" depart="17.64" fromTaz="631668821" toTaz="631668821">
        <route edges="-49695726 49695726"/>
    </vehicle>
    <vehicle id="Flow15.5" type="Car15" depart="17.86" fromTaz="cluster_9383263990_9383263991_9383263992_9383263993" toTaz="cluster_9383263990_9383263991_9383263992_9383263993">
        <route edges="506322841#1 182336886 30620492#1"/>
    </vehicle>
    <vehicle id="Flow6.5" type="Car6" depart="18.52" fromTaz="7782558678" toTaz="3431431576">
        <route edges="196961215#0 196961215#2 288878926#0 593849711#0"/>
    </vehicle>
    <vehicle id="Flow31.1" type="Car31" depart="18.75" fromTaz="3092676101" toTaz="cluster_623980090_623980094">
        <route edges="268564473#0 288878927"/>
    </vehicle>
    <vehicle id="Flow0.4" type="Car0" depart="19.67" fromTaz="cluster_3431431575_4777363357_655375231_6982059025" toTaz="3196998953">
        <route edges="51362429#0 593847701 E0 -594658757#2 303647015#0"/>
    </vehicle>
    <vehicle id="Flow20.6" type="Car20" depart="19.78" fromTaz="cluster_5372642442_631668976_631668981_631669076" toTaz="2690921409">
        <route edges="506322851#0"/>
    </vehicle>
    <vehicle id="Flow29.1" type="Car29" depart="20.00" fromTaz="655375286" toTaz="cluster655375336_end_0_655375336_end_1_655375336_end_10_655375336_end_11_#8more">
        <route edges="244450512#0 244450512#1 244450512#4 244450512#5 593844221#0"/>
    </vehicle>
    <vehicle id="Flow3.5" type="Car3" depart="20.55" fromTaz="cluster655375228_655375240" toTaz="3208478132">
        <route edges="-E1 -300077497#8 -300077497#5 182334378#0 232003903#0 51289045#1"/>
    </vehicle>
    <vehicle id="Flow16.2" type="Car16" depart="20.69" fromTaz="622618015" toTaz="622618230">
        <route edges="49073274 593852346"/>
    </vehicle>
    <vehicle id="Flow11.5" type="Car11" depart="21.13" fromTaz="cluster619136880_619136881_cluster_4510442270_5296993511_5296993513_619136931_#1more" toTaz="6252193077">
        <route edges="196961377#0 196961377#3 593849718#0"/>
    </vehicle>
    <vehicle id="Flow18.5" type="Car18" depart="21.13" fromTaz="cluster619136880_619136881_cluster_4510442270_5296993511_5296993513_619136931_#1more" toTaz="622618165">
        <route edges="48794887#0"/>
    </vehicle>
    <vehicle id="Flow15.6" type="Car15" depart="21.43" fromTaz="cluster_9383263990_9383263991_9383263992_9383263993" toTaz="cluster_9383263990_9383263991_9383263992_9383263993">
        <route edges="506322841#1 182336886 30620492#1"/>
    </vehicle>
    <vehicle id="Flow1.4" type="Car1" depart="21.43" fromTaz="631668923" toTaz="622618112">
        <route edges="1068234498#0 288135626#0 1068234499#0 182334378#0 -E0 593847704#0 49073272#0"/>
    </vehicle>
    <vehicle id="Flow19.1" type="Car19" depart="21.43" fromTaz="cluster3086736522_655375108_655375247_655375401_#1more" toTaz="cluster655375228_655375240">
        <route edges="594658762#0"/>
    </vehicle>
    <vehicle id="Flow7.2" type="Car7" depart="21.43" fromTaz="6251747844" toTaz="cluster_5372642442_631668976_631668981_631669076">
        <route edges="-260882327 -545977624#2 593842812#0 593842812#2 593844221#0 49695736#0 182334379#0"/>
    </vehicle>
    <vehicle id="Flow10.3" type="Car10" depart="21.95" fromTaz="2760755470" toTaz="655375241">
        <route edges="30620492#0 30620492#1 506322840#0"/>
    </vehicle>
    <vehicle id="Flow8.5" type="Car8" depart="22.06" fromTaz="631668821" toTaz="631668821">
        <route edges="-49695726 49695726"/>
    </vehicle>
    <vehicle id="Flow6.6" type="Car6" depart="22.22" fromTaz="7782558678" toTaz="3431431576">
        <route edges="196961215#0 196961215#2 241518668#0 336063376#0"/>
    </vehicle>
    <vehicle id="Flow13.4" type="Car13" depart="22.22" fromTaz="cluster_9383263990_9383263991_9383263992_9383263993" toTaz="3139323041">
        <route edges="506322841#1 198001764#0 182336887#2"/>
    </vehicle>
    <vehicle id="Flow5.4" type="Car5" depart="22.64" fromTaz="622618230" toTaz="2013717678">
        <route edges="593849715 -593847704#2 593847705 593847703#0 182334379#0 288135628#0"/>
    </vehicle>
    <vehicle id="Flow20.7" type="Car20" depart="23.07" fromTaz="cluster_5372642442_631668976_631668981_631669076" toTaz="2690921409">
        <route edges="506322851#0"/>
    </vehicle>
    <vehicle id="Flow25.1" type="Car25" depart="23.08" fromTaz="3208478128" toTaz="3208478132">
        <route edges="314800955"/>
    </vehicle>
    <vehicle id="Flow27.3" type="Car27" depart="23.08" fromTaz="622618197" toTaz="622618015">
        <route edges="593849721"/>
    </vehicle>
    <vehicle id="Flow4.2" type="Car4" depart="24.00" fromTaz="cluster655375336_end_0_655375336_end_1_655375336_end_10_655375336_end_11_#8more" toTaz="656132476">
        <route edges="232003903#0 593844216#0 545977624#0"/>
    </vehicle>
    <vehicle id="Flow0.5" type="Car0" depart="24.59" fromTaz="cluster_3431431575_4777363357_655375231_6982059025" toTaz="3196998953">
        <route edges="484988952#0 -51362430 1068440001 1239087513 593844221#0 -594658757#2 303647015#0"/>
    </vehicle>
    <vehicle id="Flow3.6" type="Car3" depart="24.65" fromTaz="cluster655375228_655375240" toTaz="3208478132">
        <route edges="-E1 263217604#0 360843888 244450512#4 314800955"/>
    </vehicle>
    <vehicle id="Flow15.7" type="Car15" depart="25.00" fromTaz="cluster_9383263990_9383263991_9383263992_9383263993" toTaz="cluster_9383263990_9383263991_9383263992_9383263993">
        <route edges="506322840#0 -1334905223#2 263217603#0"/>
    </vehicle>
    <vehicle id="Flow11.6" type="Car11" depart="25.35" fromTaz="cluster619136880_619136881_cluster_4510442270_5296993511_5296993513_619136931_#1more" toTaz="6252193077">
        <route edges="196961377#0 196961377#3 593849718#0"/>
    </vehicle>
    <vehicle id="Flow18.6" type="Car18" depart="25.35" fromTaz="cluster619136880_619136881_cluster_4510442270_5296993511_5296993513_619136931_#1more" toTaz="622618165">
        <route edges="48794887#0"/>
    </vehicle>
    <vehicle id="Flow6.7" type="Car6" depart="25.92" fromTaz="7782558678" toTaz="3431431576">
        <route edges="196961215#0 196961215#2 288878926#0 593849711#0"/>
    </vehicle>
    <vehicle id="Flow20.8" type="Car20" depart="26.37" fromTaz="cluster_5372642442_631668976_631668981_631669076" toTaz="2690921409">
        <route edges="506322851#0"/>
    </vehicle>
    <vehicle id="Flow8.6" type="Car8" depart="26.47" fromTaz="631668821" toTaz="631668821">
        <route edges="-49695726 49695726"/>
    </vehicle>
    <vehicle id="Flow1.5" type="Car1" depart="26.79" fromTaz="631668923" toTaz="622618112">
        <route edges="1068234498#0 288135626#0 1068234499#0 -593847703#3 -593847705 593847704#0 49073272#0"/>
    </vehicle>
    <vehicle id="Flow9.2" type="Car9" depart="27.27" fromTaz="622618144" toTaz="2713733789">
        <route edges="593852345#0 196961378#1"/>
    </vehicle>
    <vehicle id="Flow13.5" type="Car13" depart="27.78" fromTaz="cluster_9383263990_9383263991_9383263992_9383263993" toTaz="3139323041">
        <route edges="506322841#1 198001764#0 182336887#2"/>
    </vehicle>
    <vehicle id="Flow5.5" type="Car5" depart="28.30" fromTaz="622618230" toTaz="2013717678">
        <route edges="593849715 -593847704#2 593847705 593847703#0 182334379#0 288135628#0"/>
    </vehicle>
    <vehicle id="Flow15.8" type="Car15" depart="28.57" fromTaz="cluster_9383263990_9383263991_9383263992_9383263993" toTaz="cluster_9383263990_9383263991_9383263992_9383263993">
        <route edges="506322841#1 182336886 30620492#1"/>
    </vehicle>
    <vehicle id="Flow3.7" type="Car3" depart="28.76" fromTaz="cluster655375228_655375240" toTaz="3208478132">
        <route edges="-E1 263217604#0 360843888 244450512#4 314800955"/>
    </vehicle>
    <vehicle id="Flow10.4" type="Car10" depart="29.27" fromTaz="2760755470" toTaz="655375241">
        <route edges="30620492#0 30620492#1 506322840#0"/>
    </vehicle>
    <vehicle id="Flow0.6" type="Car0" depart="29.51" fromTaz="cluster_3431431575_4777363357_655375231_6982059025" toTaz="3196998953">
        <route edges="51362429#0 593847701 E0 -594658757#2 303647015#0"/>
    </vehicle>
    <vehicle id="Flow11.7" type="Car11" depart="29.58" fromTaz="cluster619136880_619136881_cluster_4510442270_5296993511_5296993513_619136931_#1more" toTaz="6252193077">
        <route edges="196961377#0 196961377#3 593849718#0"/>
    </vehicle>
    <vehicle id="Flow18.7" type="Car18" depart="29.58" fromTaz="cluster619136880_619136881_cluster_4510442270_5296993511_5296993513_619136931_#1more" toTaz="622618165">
        <route edges="48794887#0"/>
    </vehicle>
    <vehicle id="Flow6.8" type="Car6" depart="29.62" fromTaz="7782558678" toTaz="3431431576">
        <route edges="196961215#0 196961215#2 241518668#0 336063376#0"/>
    </vehicle>
    <vehicle id="Flow20.9" type="Car20" depart="29.66" fromTaz="cluster_5372642442_631668976_631668981_631669076" toTaz="2690921409">
        <route edges="506322851#0"/>
    </vehicle>
    <vehicle id="Flow26.1" type="Car26" depart="30.00" fromTaz="cluster_623980090_623980094" toTaz="7782558675">
        <route edges="196961379#0"/>
    </vehicle>
    <vehicle id="Flow27.4" type="Car27" depart="30.77" fromTaz="622618197" toTaz="622618015">
        <route edges="593849721"/>
    </vehicle>
    <vehicle id="Flow8.7" type="Car8" depart="30.88" fromTaz="631668821" toTaz="631668821">
        <route edges="-49695726 49695726"/>
    </vehicle>
    <vehicle id="Flow16.3" type="Car16" depart="31.03" fromTaz="622618015" toTaz="622618230">
        <route edges="49073274 593852346"/>
    </vehicle>
    <vehicle id="Flow15.9" type="Car15" depart="32.14" fromTaz="cluster_9383263990_9383263991_9383263992_9383263993" toTaz="cluster_9383263990_9383263991_9383263992_9383263993">
        <route edges="506322841#1 182336886 30620492#1"/>
    </vehicle>
    <vehicle id="Flow1.6" type="Car1" depart="32.14" fromTaz="631668923" toTaz="622618112">
        <route edges="1068234498#0 506322851#0 506322851#2 506322853#0 668037874 196961377#0 196961377#3 593849721 -593849724 49073272#0"/>
    </vehicle>
    <vehicle id="Flow7.3" type="Car7" depart="32.14" fromTaz="6251747844" toTaz="cluster_5372642442_631668976_631668981_631669076">
        <route edges="-260882327 -545977624#2 593842812#0 593842812#2 593844221#0 49695736#0 182334379#0"/>
    </vehicle>
    <vehicle id="Flow3.8" type="Car3" depart="32.87" fromTaz="cluster655375228_655375240" toTaz="3208478132">
        <route edges="-E1 -300077497#8 -300077497#5 182334378#0 232003903#0 51289045#1"/>
    </vehicle>
    <vehicle id="Flow20.10" type="Car20" depart="32.96" fromTaz="cluster_5372642442_631668976_631668981_631669076" toTaz="2690921409">
        <route edges="506322851#0"/>
    </vehicle>