<?xml version='1.0' encoding='utf-8'?>
<routes xmlns:xsi="http://www.w3.org/2001/XMLSchema-instance" xsi:noNamespaceSchemaLocation="http://sumo.dlr.de/xsd/routes_file.xsd">
    <vType id="api_vt_z0130a0" vClass="passenger" length="5.0" color="0,1,0" maxSpeed="26.82" />
    <flow id="api_flow_z0130a0" type="api_vt_z0130a0" begin="0" end="3600" number="33" fromJunction="655375241" toJunction="655375247" departLane="best" departPos="random_free" departSpeed="max">
        <param key="RoadName" value="市高往東  承德中山" />
        <param key="SectionId" value="Z0130A0" />
        <param key="AverageSpeedKmh" value="77.242424" />
    </flow>
    <vType id="api_vt_zn0b0e0" vClass="passenger" length="5.0" color="0,1,0" maxSpeed="13.11" />
    <flow id="api_flow_zn0b0e0" type="api_vt_zn0b0e0" begin="0" end="3600" number="4" fromJunction="655375239" toJunction="cluster_2664674491_655375287_655375288" departLane="best" departPos="random_free" departSpeed="max">
        <param key="RoadName" value="新生高    八德路-長安東路" />
        <param key="SectionId" value="ZN0B0E0" />
        <param key="AverageSpeedKmh" value="37.75" />
    </flow>
    <vType id="api_vt_zjhkr40" vClass="passenger" length="5.0" color="0,1,0" maxSpeed="14.47" />
    <flow id="api_flow_zjhkr40" type="api_vt_zjhkr40" begin="0" end="3600" number="3" fromJunction="cluster_623980090_623980094" toJunction="619136881" departLane="best" departPos="random_free" departSpeed="max">
        <param key="RoadName" value="建國南路  忠孝東路-仁愛路" />
        <param key="SectionId" value="ZJHKR40" />
        <param key="AverageSpeedKmh" value="41.666668" />
    </flow>
    <vType id="api_vt_zj7kv40" vClass="passenger" length="5.0" color="0,1,0" maxSpeed="26.39" />
    <flow id="api_flow_zj7kv40" type="api_vt_zj7kv40" begin="0" end="3600" number="4" fromJunction="619136881" toJunction="cluster_4510442270_5296993511_5296993513_619136931_#1more" departLane="best" departPos="random_free" departSpeed="max">
        <param key="RoadName" value="建國南路  仁愛路-忠孝東路" />
        <param key="SectionId" value="ZJ7KV40" />
        <param key="AverageSpeedKmh" value="76.0" />
    </flow>
    <vType id="api_vt_z0140c0" vClass="passenger" length="5.0" color="0,1,0" maxSpeed="27.35" />
    <flow id="api_flow_z0140c0" type="api_vt_z0140c0" begin="0" end="3600" number="30" fromJunction="655375247" toJunction="622618112" departLane="best" departPos="random_free" departSpeed="max">
        <param key="RoadName" value="市高往東  新生建國" />
        <param key="SectionId" value="Z0140C0" />
        <param key="AverageSpeedKmh" value="78.76667" />
    </flow>
    <vType id="api_vt_z1040a0" vClass="passenger" length="5.0" color="0,1,0" maxSpeed="25.15" />
    <flow id="api_flow_z1040a0" type="api_vt_z1040a0" begin="0" end="3600" number="44" fromJunction="619136881" toJunction="cluster_623980090_623980094" departLane="best" departPos="random_free" departSpeed="max">
        <param key="RoadName" value="建國快往北 忠孝長安" />
        <param key="SectionId" value="Z1040A0" />
        <param key="AverageSpeedKmh" value="72.431816" />
    </flow>
    <vType id="api_vt_zjsjd40" vClass="passenger" length="5.0" color="0,1,0" maxSpeed="23.73" />
    <flow id="api_flow_zjsjd40" type="api_vt_zjsjd40" begin="0" end="3600" number="3" fromJunction="cluster_2664674491_655375287_655375288" toJunction="cluster_9383263990_9383263991_9383263992_9383263993" departLane="best" departPos="random_free" departSpeed="max">
        <param key="RoadName" value="忠孝東　金山南(往南)" />
        <param key="SectionId" value="ZJSJD40" />
        <param key="AverageSpeedKmh" value="68.333336" />
    </flow>
    <vType id="api_vt_zk7k820" vClass="passenger" length="5.0" color="0,1,0" maxSpeed="13.54" />
    <flow id="api_flow_zk7k820" type="api_vt_zk7k820" begin="0" end="3600" number="2" fromJunction="cluster_2528018119_655375236" toJunction="655375233" departLane="best" departPos="random_free" departSpeed="max">
        <param key="RoadName" value="八德路    新生南路-建國北路" />
        <param key="SectionId" value="ZK7K820" />
        <param key="AverageSpeedKmh" value="39.0" />
    </flow>
    <vType id="api_vt_z0150c2" vClass="passenger" length="5.0" color="0,1,0" maxSpeed="25.79" />
    <flow id="api_flow_z0150c2" type="api_vt_z0150c2" begin="0" end="3600" number="56" fromJunction="622618112" toJunction="cluster_4510442270_5296993511_5296993513_619136931_#1more" departLane="best" departPos="random_free" departSpeed="max">
        <param key="RoadName" value="市高往東  敦化延吉" />
        <param key="SectionId" value="Z0150C2" />
        <param key="AverageSpeedKmh" value="74.26786" />
    </flow>
    <vType id="api_vt_z1260e0" vClass="passenger" length="5.0" color="0,1,0" maxSpeed="25.59" />
    <flow id="api_flow_z1260e0" type="api_vt_z1260e0" begin="0" end="3600" number="49" fromJunction="3208478121" toJunction="cluster_4510442270_5296993511_5296993513_619136931_#1more" departLane="best" departPos="random_free" departSpeed="max">
        <param key="RoadName" value="建國快往南 忠孝仁愛" />
        <param key="SectionId" value="Z1260E0" />
        <param key="AverageSpeedKmh" value="73.69388" />
    </flow>
    <vType id="api_vt_z03d0g1" vClass="passenger" length="5.0" color="0,1,0" maxSpeed="24.47" />
    <flow id="api_flow_z03d0g1" type="api_vt_z03d0g1" begin="0" end="3600" number="30" fromJunction="cluster_655375246_655375489" toJunction="655375241" departLane="best" departPos="random_free" departSpeed="max">
        <param key="RoadName" value="市高往西  林森中山" />
        <param key="SectionId" value="Z03D0G1" />
        <param key="AverageSpeedKmh" value="70.46667" />
    </flow>
    <vType id="api_vt_z03b0g0" vClass="passenger" length="5.0" color="0,1,0" maxSpeed="27.02" />
    <flow id="api_flow_z03b0g0" type="api_vt_z03b0g0" begin="0" end="3600" number="55" fromJunction="cluster_4510442270_5296993511_5296993513_619136931_#1more" toJunction="622618230" departLane="best" departPos="random_free" departSpeed="max">
        <param key="RoadName" value="市高往西  延吉復興" />
        <param key="SectionId" value="Z03B0G0" />
        <param key="AverageSpeedKmh" value="77.818184" />
    </flow>
    <vType id="api_vt_z0150c0" vClass="passenger" length="5.0" color="0,1,0" maxSpeed="25.89" />
    <flow id="api_flow_z0150c0" type="api_vt_z0150c0" begin="0" end="3600" number="57" fromJunction="622618112" toJunction="cluster_4510442270_5296993511_5296993513_619136931_#1more" departLane="best" departPos="random_free" departSpeed="max">
        <param key="RoadName" value="市高往東  復興敦化" />
        <param key="SectionId" value="Z0150C0" />
        <param key="AverageSpeedKmh" value="74.5614" />
    </flow>
    <vType id="api_vt_z1030a0" vClass="passenger" length="5.0" color="0,1,0" maxSpeed="25.59" />
    <flow id="api_flow_z1030a0" type="api_vt_z1030a0" begin="0" end="3600" number="56" fromJunction="cluster_4510442270_5296993511_5296993513_619136931_#1more" toJunction="619136881" departLane="best" departPos="random_free" departSpeed="max">
        <param key="RoadName" value="建國快往北 仁愛忠孝" />
        <param key="SectionId" value="Z1030A0" />
        <param key="AverageSpeedKmh" value="73.69643" />
    </flow>
    <vType id="api_vt_z0140c1" vClass="passenger" length="5.0" color="0,1,0" maxSpeed="25.98" />
    <flow id="api_flow_z0140c1" type="api_vt_z0140c1" begin="0" end="3600" number="30" fromJunction="655375247" toJunction="622618112" departLane="best" departPos="random_free" departSpeed="max">
        <param key="RoadName" value="市高往東  建國復興" />
        <param key="SectionId" value="Z0140C1" />
        <param key="AverageSpeedKmh" value="74.833336" />
    </flow>
    <vType id="api_vt_z0130a1" vClass="passenger" length="5.0" color="0,1,0" maxSpeed="24.79" />
    <flow id="api_flow_z0130a1" type="api_vt_z0130a1" begin="0" end="3600" number="27" fromJunction="655375241" toJunction="655375247" departLane="best" departPos="random_free" departSpeed="max">
        <param key="RoadName" value="市高往東  中山林森" />
        <param key="SectionId" value="Z0130A1" />
        <param key="AverageSpeedKmh" value="71.40741" />
    </flow>
    <vType id="api_vt_z12c2e0" vClass="passenger" length="5.0" color="0,1,0" maxSpeed="21.03" />
    <flow id="api_flow_z12c2e0" type="api_vt_z12c2e0" begin="0" end="3600" number="23" fromJunction="3208478121" toJunction="cluster_619136929_619136942" departLane="best" departPos="random_free" departSpeed="max">
        <param key="RoadName" value="建國快往南 忠孝東路下匝道" />
        <param key="SectionId" value="Z12C2E0" />
        <param key="AverageSpeedKmh" value="60.565216" />
    </flow>
    <vType id="api_vt_z7230e0" vClass="passenger" length="5.0" color="0,1,0" maxSpeed="29.58" />
    <flow id="api_flow_z7230e0" type="api_vt_z7230e0" begin="0" end="3600" number="5" fromJunction="cluster_623980090_623980094" toJunction="622618112" departLane="best" departPos="random_free" departSpeed="max">
        <param key="RoadName" value="麥二正氣" />
        <param key="SectionId" value="Z7230E0" />
        <param key="AverageSpeedKmh" value="85.2" />
    </flow>
    <vType id="api_vt_z1250e0" vClass="passenger" length="5.0" color="0,1,0" maxSpeed="24.49" />
    <flow id="api_flow_z1250e0" type="api_vt_z1250e0" begin="0" end="3600" number="57" fromJunction="cluster_623980147_623980152" toJunction="3208478121" departLane="best" departPos="random_free" departSpeed="max">
        <param key="RoadName" value="建國快往南 長安忠孝" />
        <param key="SectionId" value="Z1250E0" />
        <param key="AverageSpeedKmh" value="70.52631" />
    </flow>
    <vType id="api_vt_zn2d0e0" vClass="passenger" length="5.0" color="0,1,0" maxSpeed="8.81" />
    <flow id="api_flow_zn2d0e0" type="api_vt_zn2d0e0" begin="0" end="3600" number="11" fromJunction="cluster_2664674491_655375287_655375288" toJunction="655375239" departLane="best" departPos="random_free" departSpeed="max">
        <param key="RoadName" value="新生高    長安東路-八德路" />
        <param key="SectionId" value="ZN2D0E0" />
        <param key="AverageSpeedKmh" value="25.363636" />
    </flow>
    <vType id="api_vt_zjhkr20" vClass="passenger" length="5.0" color="0,1,0" maxSpeed="18.69" />
    <flow id="api_flow_zjhkr20" type="api_vt_zjhkr20" begin="0" end="3600" number="6" fromJunction="cluster_5372642442_631668976_631668981_631669076" toJunction="619136881" departLane="best" departPos="random_free" departSpeed="max">
        <param key="RoadName" value="忠孝東路  復興北路-建國南路" />
        <param key="SectionId" value="ZJHKR20" />
        <param key="AverageSpeedKmh" value="53.833332" />
    </flow>
    <vType id="api_vt_z1240e0" vClass="passenger" length="5.0" color="0,1,0" maxSpeed="28.14" />
    <flow id="api_flow_z1240e0" type="api_vt_z1240e0" begin="0" end="3600" number="38" fromJunction="cluster_4374470814_4374470816_656132411_656132475" toJunction="cluster_623980147_623980152" departLane="best" departPos="random_free" departSpeed="max">
        <param key="RoadName" value="建國快往南 長春長安" />
        <param key="SectionId" value="Z1240E0" />
        <param key="AverageSpeedKmh" value="81.052635" />
    </flow>
    <vType id="api_vt_zkjjp20" vClass="passenger" length="5.0" color="0,1,0" maxSpeed="21.02" />
    <flow id="api_flow_zkjjp20" type="api_vt_zkjjp20" begin="0" end="3600" number="21" fromJunction="cluster_4510442270_5296993511_5296993513_619136931_#1more" toJunction="655375336" departLane="best" departPos="random_free" departSpeed="max">
        <param key="RoadName" value="市民大道  金山北路-建國北路" />
        <param key="SectionId" value="ZKJJP20" />
        <param key="AverageSpeedKmh" value="60.52381" />
    </flow>
    <vType id="api_vt_zjwj740" vClass="passenger" length="5.0" color="0,1,0" maxSpeed="8.11" />
    <flow id="api_flow_zjwj740" type="api_vt_zjwj740" begin="0" end="3600" number="11" fromJunction="cluster_5372642442_631668976_631668981_631669076" toJunction="cluster_5372642442_631668976_631668981_631669076" departLane="best" departPos="random_free" departSpeed="max">
        <param key="RoadName" value="濟南路　新生南(往南)" />
        <param key="SectionId" value="ZJWJ740" />
        <param key="AverageSpeedKmh" value="23.363636" />
    </flow>
    <vType id="api_vt_zk9kc60" vClass="passenger" length="5.0" color="0,1,0" maxSpeed="16.49" />
    <flow id="api_flow_zk9kc60" type="api_vt_zk9kc60" begin="0" end="3600" number="24" fromJunction="622618230" toJunction="655375232" departLane="best" departPos="random_free" departSpeed="max">
        <param key="RoadName" value="市民大道  建國北路-金山北路" />
        <param key="SectionId" value="ZK9KC60" />
        <param key="AverageSpeedKmh" value="47.5" />
    </flow>
    <vType id="api_vt_z03c0g0" vClass="passenger" length="5.0" color="0,1,0" maxSpeed="18.23" />
    <flow id="api_flow_z03c0g0" type="api_vt_z03c0g0" begin="0" end="3600" number="2" fromJunction="622618230" toJunction="cluster_655375246_655375489" departLane="best" departPos="random_free" departSpeed="max">
        <param key="RoadName" value="市高往西  復興建國" />
        <param key="SectionId" value="Z03C0G0" />
        <param key="AverageSpeedKmh" value="52.5" />
    </flow>
    <vType id="api_vt_zn0a0e0" vClass="passenger" length="5.0" color="0,1,0" maxSpeed="20.57" />
    <flow id="api_flow_zn0a0e0" type="api_vt_zn0a0e0" begin="0" end="3600" number="4" fromJunction="cluster_9383263990_9383263991_9383263992_9383263993" toJunction="655375239" departLane="best" departPos="random_free" departSpeed="max">
        <param key="RoadName" value="新生高   濟南-八德路" />
        <param key="SectionId" value="ZN0A0E0" />
        <param key="AverageSpeedKmh" value="59.25" />
    </flow>
    <vType id="api_vt_zn2e0e0" vClass="passenger" length="5.0" color="0,1,0" maxSpeed="24.17" />
    <flow id="api_flow_zn2e0e0" type="api_vt_zn2e0e0" begin="0" end="3600" number="13" fromJunction="655375239" toJunction="cluster_9383263990_9383263991_9383263992_9383263993" departLane="best" departPos="random_free" departSpeed="max">
        <param key="RoadName" value="新生高    八德路-濟南路" />
        <param key="SectionId" value="ZN2E0E0" />
        <param key="AverageSpeedKmh" value="69.61539" />
    </flow>
    <vType id="api_vt_z0150c1" vClass="passenger" length="5.0" color="0,1,0" maxSpeed="27.26" />
    <flow id="api_flow_z0150c1" type="api_vt_z0150c1" begin="0" end="3600" number="53" fromJunction="622618112" toJunction="cluster_4510442270_5296993511_5296993513_619136931_#1more" departLane="best" departPos="random_free" departSpeed="max">
        <param key="RoadName" value="市高往東  敦化上方" />
        <param key="SectionId" value="Z0150C1" />
        <param key="AverageSpeedKmh" value="78.50944" />
    </flow>
    <vType id="api_vt_zk7kp40" vClass="passenger" length="5.0" color="0,1,0" maxSpeed="8.33" />
    <flow id="api_flow_zk7kp40" type="api_vt_zk7kp40" begin="0" end="3600" number="10" fromJunction="cluster_623980147_623980152" toJunction="622618230" departLane="best" departPos="random_free" departSpeed="max">
        <param key="RoadName" value="建國北路  長安東路-忠孝東路" />
        <param key="SectionId" value="ZK7KP40" />
        <param key="AverageSpeedKmh" value="24.0" />
    </flow>
    <vType id="api_vt_z03d0g0" vClass="passenger" length="5.0" color="0,1,0" maxSpeed="22.01" />
    <flow id="api_flow_z03d0g0" type="api_vt_z03d0g0" begin="0" end="3600" number="5" fromJunction="cluster_655375246_655375489" toJunction="655375241" departLane="best" departPos="random_free" departSpeed="max">
        <param key="RoadName" value="市高往西  新生林森" />
        <param key="SectionId" value="Z03D0G0" />
        <param key="AverageSpeedKmh" value="63.4" />
    </flow>
    <vType id="api_vt_zjqji20" vClass="passenger" length="5.0" color="0,1,0" maxSpeed="13.50" />
    <flow id="api_flow_zjqji20" type="api_vt_zjqji20" begin="0" end="3600" number="24" fromJunction="cluster_9383263990_9383263991_9383263992_9383263993" toJunction="cluster_2038168688_655375573" departLane="best" departPos="random_free" departSpeed="max">
        <param key="RoadName" value="忠孝東路  建國南路-中山北路" />
        <param key="SectionId" value="ZJQJI20" />
        <param key="AverageSpeedKmh" value="38.875" />
    </flow>
    <vType id="api_vt_zjtj820" vClass="passenger" length="5.0" color="0,1,0" maxSpeed="25.39" />
    <flow id="api_flow_zjtj820" type="api_vt_zjtj820" begin="0" end="3600" number="8" fromJunction="655375241" toJunction="655375241" departLane="best" departPos="random_free" departSpeed="max">
        <param key="RoadName" value="忠孝東路  杭州北路-中山北路" />
        <param key="SectionId" value="ZJTJ820" />
        <param key="AverageSpeedKmh" value="73.125" />
    </flow>
</routes>