<?xml version="1.0" encoding="UTF-8"?>

<!-- generated on 2026-01-17 19:16:22 by Eclipse SUMO duarouter Version 1.24.0
<duarouterConfiguration xmlns:xsi="http://www.w3.org/2001/XMLSchema-instance" xsi:noNamespaceSchemaLocation="http://sumo.dlr.de/xsd/duarouterConfiguration.xsd">

    <input>
        <net-file value="data/legacy/ntut-the way.net.xml"/>
        <route-files value="data/legacy/trips.xml"/>
        <junction-taz value="true"/>
    </input>

    <output>
        <output-file value="data/legacy/output.rou.xml"/>
    </output>

    <processing>
        <remove-loops value="true"/>
        <repair value="true"/>
    </processing>

    <report>
        <ignore-errors value="true"/>
    </report>

</duarouterConfiguration>
-->

<routes xmlns:xsi="http://www.w3.org/2001/XMLSchema-instance" xsi:noNamespaceSchemaLocation="http://sumo.dlr.de/xsd/routes_file.xsd">
    <vType id="car" length="5.00" maxSpeed="15.00" vClass="passenger" color="red"/>
    <vehicle id="trip_46" type="car" depart="0.54" fromTaz="631668821" toTaz="2444664370">
        <route edges="420578931#1 506322851#2 506322853#0 506322857#0 49695733#0 49695733#2 1068234498#0 288135626#0"/>
    </vehicle>
    <vehicle id="trip_170" type="car" depart="1.02" fromTaz="2690921409" toTaz="619136999">
        <route edges="506322851#2 506322853#0 668037874 196961377#0"/>
    </vehicle>
    <vehicle id="trip_11" type="car" depart="1.28" fromTaz="631668926" toTaz="6251747844">
        <route edges="49695733#0 49695733#2 1068234498#0 288135626#0 1068234499#0 182334378#0 232003903#0 51289045#1 51289045#3 51289045#4 51289045#5"/>
    </vehicle>
    <vehicle id="trip_149" type="car" depart="1.88" fromTaz="622618108" toTaz="619137000">
        <route edges="49073272#0 49073272#1"/>
    </vehicle>
    <vehicle id="trip_120" type="car" depart="1.92" fromTaz="3086736518" toTaz="2760755466">
        <route edges="593847705 593847703#0 300077497#0 35274074#0 506322847#0"/>
    </vehicle>
    <vehicle id="trip_290" type="car" depart="2.13" fromTaz="3208478128" toTaz="622618015">
        <route edges="244450512#5 593844221#0 1068440004#1 593847702#0 593847702#3 593849721"/>
    </vehicle>
    <vehicle id="trip_269" type="car" depart="2.91" fromTaz="cluster_623980090_623980094" toTaz="655375247">
        <route edges="196961215#2 241518668#0 51362429#0 593847701 E0 -594658757#2 -304148115 594658759"/>
    </vehicle>
    <vehicle id="trip_200" type="car" depart="3.26" fromTaz="cluster11510670762_4554226152" toTaz="631668821">
        <route edges="1239087513 593844221#0 1068440004#1 593847702#0 49073272#1 49073272#3 49073272#4 506322857#0 49695733#0 420578931#0"/>
    </vehicle>
    <vehicle id="trip_7" type="car" depart="3.47" fromTaz="622618230" toTaz="655375108">
        <route edges="593849715 -593847704#2 E0 -594658757#2 -304148115"/>
    </vehicle>
    <vehicle id="trip_207" type="car" depart="5.51" fromTaz="cluster_2664674491_655375287_655375288" toTaz="2013717680">
        <route edges="244450512#4 244450512#5 593844221#0 49695736#0 300077497#0 35274074#0 506322846#0 186602412#0"/>
    </vehicle>
    <vehicle id="trip_284" type="car" depart="5.79" fromTaz="cluster_2038168688_655375573" toTaz="cluster_2664674491_655375287_655375288">
        <route edges="506322848#0 506322844#0 263217604#0 594658761 594658758 360843888"/>
    </vehicle>
    <vehicle id="trip_224" type="car" depart="6.29" fromTaz="655375232" toTaz="655375105">
        <route edges="593847701 E0 -594658757#2 -304148115 -51362368"/>
    </vehicle>
    <vehicle id="trip_245" type="car" depart="7.75" fromTaz="2013717680" toTaz="2877022366">
        <route edges="-186602412#3 506322846#2 506322851#0 506322851#2"/>
    </vehicle>
    <vehicle id="trip_109" type="car" depart="7.88" fromTaz="2013717680" toTaz="cluster_3431431575_4777363357_655375231_6982059025">
        <route edges="-186602412#3 506322846#2 288135626#0 1068234499#0 -593847703#3 -593847705 -593847701 -51362429#1"/>
    </vehicle>
    <vehicle id="trip_44" type="car" depart="10.00" fromTaz="2444664370" toTaz="656132414">
        <route edges="1068234499#0 182334378#0 232003903#0 1239087512 1239087514"/>
    </vehicle>
    <vehicle id="trip_161" type="car" depart="15.27" fromTaz="3431431576" toTaz="631668926">
        <route edges="593849711#2 593847701 593847704#0 49073272#0 49073272#1 49073272#3 49073272#4 506322857#0"/>
    </vehicle>
    <vehicle id="trip_148" type="car" depart="17.51" fromTaz="622618230" toTaz="631668826">
        <route edges="593849715 49073272#0 49073272#1 49073272#3 49073272#4 506322857#0 49695733#0 420578931#0 -49695726"/>
    </vehicle>
    <vehicle id="trip_98" type="car" depart="17.59" fromTaz="cluster655375228_655375240" toTaz="622618197">
        <route edges="-1334905225 -300077497#8 -300077497#5 -593847703#3 593847702#0 593847702#3"/>
    </vehicle>
    <vehicle id="trip_33" type="car" depart="17.66" fromTaz="2081945236" toTaz="3086736522">
        <route edges="182336886 30620492#1 506322844#0 263217604#0 594658761"/>
    </vehicle>
    <vehicle id="trip_190" type="car" depart="18.05" fromTaz="655375238" toTaz="cluster11510670762_4554226152">
        <route edges="-300077497#5 182334378#0 232003903#0 1239087512"/>
    </vehicle>
    <vehicle id="trip_125" type="car" depart="19.17" fromTaz="619137000" toTaz="655375244">
        <route edges="49073272#3 360018417 196961377#3 593849721 49073274 593852345#0 196961215#2 241518668#0 484988952#0"/>
    </vehicle>
    <vehicle id="trip_228" type="car" depart="19.24" fromTaz="2664674480" toTaz="3208478121">
        <route edges="260881641 244450512#4 244450512#5 593844221#0 1068440004#1 593847702#0 49073272#1 49073272#3"/>
    </vehicle>
    <vehicle id="trip_234" type="car" depart="20.71" fromTaz="cluster11510670762_4554226152" toTaz="2444664370">
        <route edges="1239087513 593844221#0 49695736#0 300077497#0 35274074#0 506322846#0 506322846#2 288135626#0"/>
    </vehicle>
    <vehicle id="trip_42" type="car" depart="25.34" fromTaz="cluster_3431431575_4777363357_655375231_6982059025" toTaz="656132414">
        <route edges="484988952#0 -51362430"/>
    </vehicle>
    <vehicle id="trip_3" type="car" depart="25.83" fromTaz="631668926" toTaz="cluster619136880_619136881_cluster_4510442270_5296993511_5296993513_619136931_#1more">
        <route edges="49695733#0 420578931#0 420578931#1 506322851#2 506322853#0 668037874"/>
    </vehicle>
    <vehicle id="trip_8" type="car" depart="26.09" fromTaz="656132414" toTaz="3086736515">
        <route edges="51362430 484988951#0 49073226#2 288878926#0 593849715 593849724 49073264#0"/>
    </vehicle>
    <vehicle id="trip_266" type="car" depart="26.85" fromTaz="2690921409" toTaz="cluster_4374470814_4374470816_656132411_656132475">
        <route edges="506322851#2 506322853#0 668037874 196961377#0 196961377#3 593849721 49073274 593852345#0 196961215#2 241518668#0 484988952#0 -51362430 1068440001 1239087513 593844216#0"/>
    </vehicle>
    <vehicle id="trip_122" type="car" depart="28.69" fromTaz="3208478132" toTaz="656132412">
        <route edges="51289045#3 51289045#4 51289045#5 -260882327 -545977624#2 51392846#0"/>
    </vehicle>
    <vehicle id="trip_91" type="car" depart="28.82" fromTaz="622618108" toTaz="3086736522">
        <route edges="-593847704#2 E0 -594658757#2"/>
    </vehicle>
    <vehicle id="trip_61" type="car" depart="29.06" fromTaz="cluster_3208478133_655375293_655375296_9631728504_#1more" toTaz="cluster_5372642442_631668976_631668981_631669076">
        <route edges="593844221#0 49695736#0 182334379#0"/>
    </vehicle>
    <vehicle id="trip_246" type="car" depart="29.15" fromTaz="619137000" toTaz="622618197">
        <route edges="49073272#3 360018417 196961377#3"/>
    </vehicle>
    <vehicle id="trip_293" type="car" depart="29.28" fromTaz="2081945236" toTaz="655375241">
        <route edges="182336886 30620492#1 506322840#0"/>
    </vehicle>
    <vehicle id="trip_78" type="car" depart="29.91" fromTaz="3086736518" toTaz="655375105">
        <route edges="E0 -594658757#2 -304148115 -51362368"/>
    </vehicle>
    <vehicle id="trip_1" type="car" depart="32.57" fromTaz="cluster_655375246_655375489" toTaz="cluster_623980147_623980152">
        <route edges="360843891 304148115 594658757#0 1068440004#1 -593847705 -593847701 -51362429#1 49073226#2"/>
    </vehicle>
    <vehicle id="trip_278" type="car" depart="32.66" fromTaz="656132498" toTaz="cluster_623980147_623980152">
        <route edges="593842812#2 1239087512 1239087514 51362430 484988951#0 49073226#2"/>
    </vehicle>
    <vehicle id="trip_265" type="car" depart="34.08" fromTaz="3086736518" toTaz="2664674480">
        <route edges="-593847701 1068440006#0 232003903#0 51289045#1 51289045#3 51289045#4"/>
    </vehicle>
    <vehicle id="trip_295" type="car" depart="34.27" fromTaz="622618230" toTaz="655375108">
        <route edges="593849715 -593847704#2 E0 -594658757#2 -304148115"/>
    </vehicle>
    <vehicle id="trip_178" type="car" depart="34.40" fromTaz="631668826" toTaz="655375105">
        <route edges="49695726 420578931#1 506322851#2 506322853#0 668037874 196961377#0 196961377#3 593849721 -593849724 -593847704#2 E0 -594658757#2 -304148115 -51362368"/>
    </vehicle>
    <vehicle id="trip_22" type="car" depart="35.11" fromTaz="cluster_3208478133_655375293_655375296_9631728504_#1more" toTaz="3208478128">
        <route edges="51289045#1 51289045#3 51289045#4 260881641 244450512#4"/>
    </vehicle>
    <vehicle id="trip_286" type="car" depart="35.26" fromTaz="cluster_655375246_655375489" toTaz="622618015">
        <route edges="360843891 304148115 594658757#0 1068440004#1 593847702#0 593847702#3 593849721"/>
    </vehicle>
    <vehicle id="trip_235" type="car" depart="35.97" fromTaz="cluster_2664674491_655375287_655375288" toTaz="2013717680">
        <route edges="244450512#4 244450512#5 593844221#0 49695736#0 300077497#0 35274074#0 506322846#0 186602412#0"/>
    </vehicle>
    <vehicle id="trip_192" type="car" depart="36.55" fromTaz="1973482489" toTaz="631668818">
        <route edges="506322846#2 506322851#0 506322851#2 506322853#0 506322857#0 49695733#0"/>
    </vehicle>
    <vehicle id="trip_222" type="car" depart="39.62" fromTaz="655375105" toTaz="3431431576">
        <route edges="51362368 304148115 594658757#0 1068440004#1 -593847705 -593847701 -51362429#1 336063376#0"/>
    </vehicle>
    <vehicle id="trip_175" type="car" depart="40.50" fromTaz="3208478132" toTaz="622618112">
        <route edges="51289045#3 51392936#0 593842812#2 593844221#0 1068440004#1 593847702#0"/>
    </vehicle>
    <vehicle id="trip_115" type="car" depart="41.24" fromTaz="631668923" toTaz="631668821">
        <route edges="1068234498#0 506322851#0 506322851#2 506322853#0 506322857#0 49695733#0 420578931#0"/>
    </vehicle>
    <vehicle id="trip_298" type="car" depart="41.98" fromTaz="655375244" toTaz="cluster_655375246_655375489">
        <route edges="-51362430 1068440001 1239087513 593844221#0 -594658757#2 594658758"/>
    </vehicle>
    <vehicle id="trip_217" type="car" depart="42.20" fromTaz="655375401" toTaz="622618144">
        <route edges="594658760#0 -E0 593847704#0 593849724 49073274"/>
    </vehicle>
    <vehicle id="trip_276" type="car" depart="49.23" fromTaz="655375241" toTaz="655375239">
        <route edges="-1334905223#2 -1334905225"/>
    </vehicle>
    <vehicle id="trip_112" type="car" depart="50.75" fromTaz="656132414" toTaz="cluster_655375246_655375489">
        <route edges="1068440001 1239087513 593844221#0 -594658757#2 594658758"/>
    </vehicle>
    <vehicle id="trip_101" type="car" depart="52.69" fromTaz="3208478128" toTaz="6251747844">
        <route edges="314800955 51289045#3 51289045#4 51289045#5"/>
    </vehicle>
    <vehicle id="trip_130" type="car" depart="53.37" fromTaz="656132476" toTaz="2760755466">
        <route edges="-545977624#2 593842812#0 593842812#2 593844221#0 49695736#0 300077497#0 35274074#0 506322847#0"/>
    </vehicle>
    <vehicle id="trip_150" type="car" depart="54.55" fromTaz="656132476" toTaz="655375108">
        <route edges="-545977624#2 593842812#0 593842812#2 593844221#0 -594658757#2 -304148115"/>
    </vehicle>
    <vehicle id="trip_32" type="car" depart="56.79" fromTaz="cluster_3431431575_4777363357_655375231_6982059025" toTaz="3086736515">
        <route edges="49073226#2 288878926#0 593849715 593849724 49073264#0"/>
    </vehicle>
    <vehicle id="trip_171" type="car" depart="57.03" fromTaz="631668926" toTaz="656132498">
        <route edges="49695733#0 49695733#2 1068234498#0 288135626#0 1068234499#0 182334378#0 232003903#0 593844216#0 593842812#0"/>
    </vehicle>
    <vehicle id="trip_146" type="car" depart="58.83" fromTaz="631668818" toTaz="622618230">
        <route edges="420578931#0 420578931#1 506322851#2 506322853#0 668037874 196961377#0 196961377#3 593849721 49073274 593852346"/>
    </vehicle>
    <vehicle id="trip_273" type="car" depart="60.10" fromTaz="5664237422" toTaz="3086736518">
        <route edges="906806086#0 593852346 593849711#0 593849711#2 593847701"/>
    </vehicle>
    <vehicle id="trip_195" type="car" depart="60.30" fromTaz="2877022366" toTaz="cluster_623980147_623980152">
        <route edges="506322853#0 668037874 196961377#0 196961377#3 593849721 49073274 593852345#0 196961215#2"/>
    </vehicle>
    <vehicle id="trip_164" type="car" depart="61.54" fromTaz="655375401" toTaz="cluster_655375246_655375489">
        <route edges="594658761 594658758"/>
    </vehicle>
    <vehicle id="trip_67" type="car" depart="62.38" fromTaz="655375401" toTaz="656132412">
        <route edges="594658760#0 232003903#0 593844216#0 51392846#0"/>
    </vehicle>
    <vehicle id="trip_158" type="car" depart="62.41" fromTaz="3431431576" toTaz="631668818">
        <route edges="593849711#2 593847701 593847704#0 49073272#0 49073272#1 49073272#3 49073272#4 506322857#0 49695733#0"/>
    </vehicle>
    <vehicle id="trip_214" type="car" depart="63.41" fromTaz="655375241" toTaz="631668821">
        <route edges="-1334905223#2 263217603#0 506322842#0 506322846#0 506322846#2 506322851#0 506322851#2 506322853#0 506322857#0 49695733#0 420578931#0"/>
    </vehicle>
    <vehicle id="trip_147" type="car" depart="63.72" fromTaz="cluster11510670762_4554226152" toTaz="1926948273">
        <route edges="1239087513 593844221#0 49695736#0 300077497#0 300077497#6 1334905225 263217603#0 506322841#1 198001764#0"/>
    </vehicle>
    <vehicle id="trip_14" type="car" depart="64.77" fromTaz="631668926" toTaz="655375238">
        <route edges="49695733#0 49695733#2 1068234498#0 238526531#0 -35274074#2"/>
    </vehicle>
    <vehicle id="trip_20" type="car" depart="66.14" fromTaz="2690921409" toTaz="3208478128">
        <route edges="506322851#2 506322853#0 668037874 196961377#0 196961377#3 593849721 -593849724 -593847704#2 E0 -594658757#2 594658758 360843888 244450512#4"/>
    </vehicle>
    <vehicle id="trip_225" type="car" depart="67.29" fromTaz="631668926" toTaz="2081945236">
        <route edges="49695733#0 49695733#2 1068234498#0 238526531#0 506322848#0 506322841#1"/>
    </vehicle>
    <vehicle id="trip_75" type="car" depart="68.23" fromTaz="631668923" toTaz="3208478128">
        <route edges="1068234498#0 288135626#0 1068234499#0 182334378#0 232003903#0 51289045#1 51289045#3 51289045#4 260881641 244450512#4"/>
    </vehicle>
    <vehicle id="trip_126" type="car" depart="69.00" fromTaz="2760755466" toTaz="655375233">
        <route edges="-506322847#4 -35274074#2 -300077497#5 -593847703#3"/>
    </vehicle>
    <vehicle id="trip_96" type="car" depart="70.26" fromTaz="cluster_655375246_655375489" toTaz="cluster_623980147_623980152">
        <route edges="360843891 304148115 594658757#0 1068440004#1 -593847705 -593847701 -51362429#1 49073226#2"/>
    </vehicle>
    <vehicle id="trip_199" type="car" depart="70.29" fromTaz="622618197" toTaz="1926948273">
        <route edges="593849721 -593849724 -593847704#2 593847705 593847703#0 300077497#0 300077497#6 1334905225 263217603#0 506322841#1 198001764#0"/>
    </vehicle>
    <vehicle id="trip_93" type="car" depart="70.83" fromTaz="631668923" toTaz="3139322031">
        <route edges="1068234498#0 238526531#0 506322848#0 506322841#1 506322841#3"/>
    </vehicle>
    <vehicle id="trip_142" type="car" depart="71.29" fromTaz="655375336" toTaz="622618015">
        <route edges="-E0 593847704#0 593849724"/>
    </vehicle>
    <vehicle id="trip_251" type="car" depart="71.42" fromTaz="622618230" toTaz="631668826">
        <route edges="593849715 49073272#0 49073272#1 49073272#3 49073272#4 506322857#0 49695733#0 420578931#0 -49695726"/>
    </vehicle>
    <vehicle id="trip_193" type="car" depart="71.92" fromTaz="631668926" toTaz="3086736515">
        <route edges="49695733#0 420578931#0 420578931#1 506322851#2 506322853#0 668037874 196961377#0 196961377#3 593849721 49073264#0"/>
    </vehicle>
    <vehicle id="trip_198" type="car" depart="73.55" fromTaz="2877022366" toTaz="cluster655375228_655375240">
        <route edges="506322853#0 506322857#0 49695733#0 49695733#2 1068234498#0 238526531#0 506322848#0 506322844#0 1334905225"/>
    </vehicle>
    <vehicle id="trip_15" type="car" depart="75.70" fromTaz="cluster_2664674491_655375287_655375288" toTaz="656132412">
        <route edges="244450512#4 244450512#5 593844216#0 51392846#0"/>
    </vehicle>
    <vehicle id="trip_85" type="car" depart="77.28" fromTaz="cluster619136899_619136900_cluster_619136929_619136942" toTaz="655375232">
        <route edges="668037874 196961377#0 196961377#3 593849721 49073274 593852346 593849711#0 593849711#2"/>
    </vehicle>
    <vehicle id="trip_5" type="car" depart="78.15" fromTaz="cluster619136880_619136881_cluster_4510442270_5296993511_5296993513_619136931_#1more" toTaz="2690921409">
        <route edges="910567294 506322857#0 49695733#0 420578931#0 420578931#1"/>
    </vehicle>
    <vehicle id="trip_270" type="car" depart="78.94" fromTaz="631668826" toTaz="cluster_9383263990_9383263991_9383263992_9383263993">
        <route edges="49695726 420578931#1 506322851#2 506322853#0 506322857#0 49695733#0 49695733#2 1068234498#0 238526531#0 506322848#0"/>
    </vehicle>
    <vehicle id="trip_297" type="car" depart="79.37" fromTaz="655375108" toTaz="1926948273">
        <route edges="594658759 594658762#0 263217603#0 506322841#1 198001764#0"/>
    </vehicle>
    <vehicle id="trip_254" type="car" depart="85.17" fromTaz="2749340167" toTaz="631668821">
        <route edges="30620492#1 506322842#0 506322846#0 506322846#2 506322851#0 506322851#2 506322853#0 506322857#0 49695733#0 420578931#0"/>
    </vehicle>
    <vehicle id="trip_243" type="car" depart="87.14" fromTaz="655375401" toTaz="3431431576">
        <route edges="594658760#0 -E0 -593847701 -51362429#1 336063376#0"/>
    </vehicle>
    <vehicle id="trip_221" type="car" depart="87.50" fromTaz="655375239" toTaz="655375238">
        <route edges="-300077497#8"/>
    </vehicle>
    <vehicle id="trip_118" type="car" depart="90.75" fromTaz="655375244" toTaz="619136999">
        <route edges="484988951#0 49073226#2 288878926#0 593849715 49073272#0 49073272#1 49073272#3 360018417"/>
    </vehicle>
    <vehicle id="trip_95" type="car" depart="90.96" fromTaz="cluster_9383263990_9383263991_9383263992_9383263993" toTaz="cluster_2528018119_655375236">
        <route edges="506322844#0 -300077497#8 -300077497#5"/>
    </vehicle>
    <vehicle id="trip_281" type="car" depart="91.49" fromTaz="655375239" toTaz="cluster_9383263990_9383263991_9383263992_9383263993">
        <route edges="1334905225 263217603#0"/>
    </vehicle>
    <vehicle id="trip_13" type="car" depart="93.97" fromTaz="655375232" toTaz="622618197">
        <route edges="593847701 593847705 593847702#0 593847702#3"/>
    </vehicle>
    <vehicle id="trip_181" type="car" depart="94.44" fromTaz="655375247" toTaz="2877022366">
        <route edges="303647013 594658760#0 49695736#0 182334379#0 506322851#0 506322851#2"/>
    </vehicle>
    <vehicle id="trip_110" type="car" depart="94.61" fromTaz="cluster_2038168688_655375573" toTaz="622618108">
        <route edges="-35274074#2 -300077497#5 -593847703#3 -593847705 593847704#0"/>
    </vehicle>
    <vehicle id="trip_168" type="car" depart="95.06" fromTaz="cluster_5372642442_631668976_631668981_631669076" toTaz="622618230">
        <route edges="288135626#0 1068234499#0 -593847703#3 593847702#0 593847702#3 593849721 49073274 593852346"/>
    </vehicle>
    <vehicle id="trip_24" type="car" depart="95.30" fromTaz="619137000" toTaz="3139322031">
        <route edges="49073272#3 49073272#4 353392316#0 238526531#0 506322848#0 506322841#1 506322841#3"/>
    </vehicle>
    <vehicle id="trip_231" type="car" depart="95.84" fromTaz="5664237422" toTaz="3208478132">
        <route edges="906806086#0 593852345#0 196961215#2 241518668#0 484988952#0 -51362430 1068440001 1239087513 51289045#1"/>
    </vehicle>
    <vehicle id="trip_213" type="car" depart="97.34" fromTaz="2664674480" toTaz="655375238">
        <route edges="260881641 244450512#4 244450512#5 593844221#0 49695736#0 300077497#0"/>
    </vehicle>
    <vehicle id="trip_216" type="car" depart="97.86" fromTaz="3431431576" toTaz="3208478132">
        <route edges="593849711#2 1068440006#0 232003903#0 51289045#1"/>
    </vehicle>
    <vehicle id="trip_132" type="car" depart="101.68" fromTaz="631668818" toTaz="631668926">
        <route edges="420578931#0 420578931#1 506322851#2 506322853#0 506322857#0"/>
    </vehicle>
    <vehicle id="trip_83" type="car" depart="102.73" fromTaz="3208478132" toTaz="cluster_623980147_623980152">
        <route edges="51289045#3 51392936#0 593842812#2 1239087512 1239087514 51362430 484988951#0 49073226#2"/>
    </vehicle>
    <vehicle id="trip_157" type="car" depart="103.07" fromTaz="655375241" toTaz="cluster619136899_619136900_cluster_619136929_619136942">
        <route edges="-1334905223#2 263217603#0 506322842#0 506322846#0 506322846#2 506322851#0 506322851#2 506322853#0"/>
    </vehicle>
    <vehicle id="trip_47" type="car" depart="103.29" fromTaz="656132414" toTaz="2877022366">
        <route edges="1068440001 1239087513 593844221#0 49695736#0 182334379#0 506322851#0 506322851#2"/>
    </vehicle>
    <vehicle id="trip_74" type="car" depart="104.07" fromTaz="3208478132" toTaz="2013717680">
        <route edges="51289045#3 51392936#0 593842812#2 593844221#0 49695736#0 300077497#0 35274074#0 506322846#0 186602412#0"/>
    </vehicle>
    <vehicle id="trip_182" type="car" depart="104.13" fromTaz="cluster_623980090_623980094" toTaz="622618197">
        <route edges="196961215#2 288878926#0 593849715 49073272#0 593847702#3"/>
    </vehicle>
    <vehicle id="trip_37" type="car" depart="104.93" fromTaz="655375336" toTaz="655375247">
        <route edges="-594658757#2 -304148115 594658759"/>
    </vehicle>
    <vehicle id="trip_215" type="car" depart="105.14" fromTaz="cluster_2528018119_655375236" toTaz="655375108">
        <route edges="182334378#0 -594658757#2 -304148115"/>
    </vehicle>
    <vehicle id="trip_16" type="car" depart="107.89" fromTaz="655375336" toTaz="655375241">
        <route edges="49695736#0 300077497#0 300077497#6 1334905225 1334905223#0"/>
    </vehicle>
    <vehicle id="trip_71" type="car" depart="108.55" fromTaz="656132476" toTaz="3208478121">
        <route edges="-545977624#2 593842812#0 593842812#2 593844221#0 1068440004#1 593847702#0 49073272#1 49073272#3"/>
    </vehicle>
    <vehicle id="trip_227" type="car" depart="111.77" fromTaz="656132499" toTaz="2013717680">
        <route edges="51392936#0 593842812#2 593844221#0 49695736#0 300077497#0 35274074#0 506322846#0 186602412#0"/>
    </vehicle>
    <vehicle id="trip_258" type="car" depart="113.71" fromTaz="3208478128" toTaz="3086736515">
        <route edges="244450512#5 593844221#0 -E0 593847704#0 593849724 49073264#0"/>
    </vehicle>
    <vehicle id="trip_165" type="car" depart="114.34" fromTaz="655375239" toTaz="655375105">
        <route edges="263217604#0 594658761 -304148115 -51362368"/>
    </vehicle>
    <vehicle id="trip_289" type="car" depart="115.60" fromTaz="cluster_2038168688_655375573" toTaz="cluster619136899_619136900_cluster_619136929_619136942">
        <route edges="506322846#0 506322846#2 506322851#0 506322851#2 506322853#0"/>
    </vehicle>
    <vehicle id="trip_69" type="car" depart="116.37" fromTaz="2444664370" toTaz="cluster_9383263990_9383263991_9383263992_9383263993">
        <route edges="1068234499#0 300077497#0 300077497#6 1334905225 263217603#0"/>
    </vehicle>
    <vehicle id="trip_12" type="car" depart="116.64" fromTaz="656132498" toTaz="631668826">
        <route edges="593842812#2 593844221#0 1068440004#1 593847702#0 49073272#1 49073272#3 49073272#4 506322857#0 49695733#0 420578931#0 -49695726"/>
    </vehicle>
    <vehicle id="trip_296" type="car" depart="116.81" fromTaz="622618197" toTaz="cluster_2528018119_655375236">
        <route edges="593849721 -593849724 -593847704#2 593847705 593847703#0"/>
    </vehicle>
    <vehicle id="trip_202" type="car" depart="117.61" fromTaz="3086736515" toTaz="655375105">
        <route edges="-49073264#1 -593849724 -593847704#2 E0 -594658757#2 -304148115 -51362368"/>
    </vehicle>
    <vehicle id="trip_152" type="car" depart="121.56" fromTaz="3208478121" toTaz="656132412">
        <route edges="360018417 196961377#3 593849721 49073274 593852345#0 196961215#2 241518668#0 484988952#0 -51362430 1068440001 1239087513 593844216#0 51392846#0"/>
    </vehicle>
    <vehicle id="trip_100" type="car" depart="122.72" fromTaz="631668923" toTaz="2081945236">
        <route edges="1068234498#0 238526531#0 506322848#0 506322841#1"/>
    </vehicle>
    <vehicle id="trip_81" type="car" depart="123.27" fromTaz="2664674480" toTaz="655375233">
        <route edges="260881641 244450512#4 244450512#5 593844221#0 1068440004#1"/>
    </vehicle>
    <vehicle id="trip_197" type="car" depart="123.56" fromTaz="631668923" toTaz="622618197">
        <route edges="1068234498#0 288135626#0 1068234499#0 -593847703#3 593847702#0 593847702#3"/>
    </vehicle>
    <vehicle id="trip_144" type="car" depart="124.67" fromTaz="cluster_5372642442_631668976_631668981_631669076" toTaz="1973482489">
        <route edges="238526531#0 -35274074#2 35274074#0 506322846#0"/>
    </vehicle>
    <vehicle id="trip_103" type="car" depart="124.84" fromTaz="3086736518" toTaz="619136999">
        <route edges="593847704#0 49073272#0 49073272#1 49073272#3 360018417"/>
    </vehicle>
    <vehicle id="trip_282" type="car" depart="124.91" fromTaz="cluster_2038168688_655375573" toTaz="cluster_2528018119_655375236">
        <route edges="-35274074#2 -300077497#5"/>
    </vehicle>
    <vehicle id="trip_189" type="car" depart="126.22" fromTaz="3086736518" toTaz="656132412">
        <route edges="-593847701 1068440006#0 232003903#0 593844216#0 51392846#0"/>
    </vehicle>
    <vehicle id="trip_87" type="car" depart="126.41" fromTaz="2877022366" toTaz="2444664370">
        <route edges="506322853#0 506322857#0 49695733#0 49695733#2 1068234498#0 288135626#0"/>
    </vehicle>
    <vehicle id="trip_294" type="car" depart="126.82" fromTaz="656132414" toTaz="cluster_4374470814_4374470816_656132411_656132475">
        <route edges="1068440001 1239087513 593844216#0"/>
    </vehicle>
    <vehicle id="trip_92" type="car" depart="126.88" fromTaz="cluster_9383263990_9383263991_9383263992_9383263993" toTaz="cluster_2528018119_655375236">
        <route edges="506322844#0 -300077497#8 -300077497#5"/>
    </vehicle>
    <vehicle id="trip_58" type="car" depart="131.15" fromTaz="cluster11510670762_4554226152" toTaz="cluster_2038168688_655375573">
        <route edges="1239087513 593844221#0 49695736#0 300077497#0 35274074#0"/>
    </vehicle>
    <vehicle id="trip_94" type="car" depart="131.80" fromTaz="cluster619136880_619136881_cluster_4510442270_5296993511_5296993513_619136931_#1more" toTaz="2013717680">
        <route edges="910567294 353392316#0 238526531#0 -35274074#2 35274074#0 506322846#0 186602412#0"/>
    </vehicle>
    <vehicle id="trip_268" type="car" depart="132.22" fromTaz="2749340167" toTaz="cluster_623980090_623980094">
        <route edges="30620492#1 506322844#0 -300077497#8 -300077497#5 -593847703#3 -593847705 -593847701 -51362429#1 49073226#2 288878927"/>
    </vehicle>
    <vehicle id="trip_162" type="car" depart="134.04" fromTaz="622618197" toTaz="3086736515">
        <route edges="593849721 49073264#0"/>
    </vehicle>
    <vehicle id="trip_291" type="car" depart="135.10" fromTaz="2081945236" toTaz="631668926">
        <route edges="182336886 30620492#1 506322842#0 506322846#0 506322846#2 506322851#0 506322851#2 506322853#0 506322857#0"/>
    </vehicle>
    <vehicle id="trip_59" type="car" depart="135.58" fromTaz="619136999" toTaz="631668818">
        <route edges="-360018417 49073272#4 506322857#0 49695733#0"/>
    </vehicle>
    <vehicle id="trip_64" type="car" depart="135.73" fromTaz="3208478121" toTaz="3086736522">
        <route edges="360018417 196961377#3 593849721 -593849724 -593847704#2 E0 -594658757#2"/>
    </vehicle>
    <vehicle id="trip_259" type="car" depart="137.25" fromTaz="5664237422" toTaz="cluster619136880_619136881_cluster_4510442270_5296993511_5296993513_619136931_#1more">
        <route edges="906806086#0 593852346 593849715 49073272#0 49073272#1 49073272#3 49073272#4 668037874"/>
    </vehicle>
    <vehicle id="trip_99" type="car" depart="139.72" fromTaz="622618144" toTaz="656132499">
        <route edges="593852345#0 196961215#2 241518668#0 484988952#0 -51362430 1068440001 1239087513 51289045#1 51289045#3"/>
    </vehicle>
    <vehicle id="trip_84" type="car" depart="140.94" fromTaz="2013717680" toTaz="cluster_655375246_655375489">
        <route edges="-186602412#3 506322846#2 288135626#0 1068234499#0 182334378#0 -594658757#2 594658758"/>
    </vehicle>
    <vehicle id="trip_134" type="car" depart="141.67" fromTaz="631668826" toTaz="3208478121">
        <route edges="49695726 420578931#1 506322851#2 506322853#0 668037874 196961377#0 -360018417"/>
    </vehicle>