<?xml version="1.0" encoding="UTF-8"?>

<!-- generated on 2025-10-26 19:18:56 by Eclipse SUMO netedit Version 1.24.0
<neteditConfiguration xmlns:xsi="http://www.w3.org/2001/XMLSchema-instance" xsi:noNamespaceSchemaLocation="http://sumo.dlr.de/xsd/neteditConfiguration.xsd">

    <input>
        <sumo-net-file value="C:\Sumo\ntut\ntut-the way.net.xml"/>
    </input>

    <output>
        <output-file value="C:\Sumo\ntut\ntut-the way.net.xml"/>
        <output.street-names value="true"/>
    </output>

    <processing>
        <geometry.min-radius.fix.railways value="false"/>
        <geometry.avoid-overlap value="false"/>
        <geometry.max-grade.fix value="false"/>
        <offset.disable-normalization value="true"/>
        <lefthand value="0"/>
    </processing>

    <junctions>
        <no-internal-links value="false"/>
        <no-turnarounds value="true"/>
        <junctions.corner-detail value="5"/>
        <junctions.limit-turn-speed value="5.50"/>
        <rectangular-lane-cut value="0"/>
    </junctions>

    <pedestrian>
        <walkingareas value="1"/>
    </pedestrian>

</neteditConfiguration>
-->

<net version="1.20" junctionCornerDetail="5" walkingareas="true" limitTurnSpeed="5.50" avoidOverlap="0" xmlns:xsi="http://www.w3.org/2001/XMLSchema-instance" xsi:noNamespaceSchemaLocation="http://sumo.dlr.de/xsd/net_file.xsd">

    <location netOffset="-351603.84,-2770292.37" convBoundary="0.00,0.00,920.86,692.75" origBoundary="121.528958,25.041010,121.538156,25.047321" projParameter="+proj=utm +zone=51 +ellps=WGS84 +datum=WGS84 +units=m +no_defs"/>

    <type id="highway.primary" priority="12" numLanes="2" speed="13.89" disallow="pedestrian tram rail_urban rail rail_electric rail_fast ship container cable_car subway aircraft wheelchair scooter drone" oneway="0" sidewalkWidth="3.00"/>
    <type id="highway.residential" priority="3" numLanes="1" speed="13.89" disallow="pedestrian tram rail_urban rail rail_electric rail_fast ship container cable_car subway aircraft wheelchair scooter drone" oneway="0" sidewalkWidth="2.00"/>
    <type id="highway.secondary" priority="11" numLanes="1" speed="13.89" disallow="pedestrian tram rail_urban rail rail_electric rail_fast ship container cable_car subway aircraft wheelchair scooter drone" oneway="0" sidewalkWidth="3.00"/>
    <type id="highway.tertiary" priority="10" numLanes="1" speed="13.89" disallow="pedestrian tram rail_urban rail rail_electric rail_fast ship container cable_car subway aircraft wheelchair scooter drone" oneway="0" sidewalkWidth="3.00"/>
    <type id="highway.tertiary_link" priority="5" numLanes="1" speed="13.89" disallow="pedestrian tram rail_urban rail rail_electric rail_fast ship container cable_car subway aircraft wheelchair scooter drone" oneway="0" sidewalkWidth="2.00"/>
    <type id="highway.trunk_link" priority="8" numLanes="1" speed="13.89" disallow="pedestrian bicycle tram rail_urban rail rail_electric rail_fast ship container cable_car subway aircraft wheelchair scooter drone" oneway="0"/>

    <edge id=":11510670762_0" function="internal">
        <lane id=":11510670762_0_0" index="0" disallow="pedestrian tram rail_urban rail rail_electric rail_fast ship container cable_car subway aircraft wheelchair scooter drone" speed="9.93" length="8.27" shape="417.01,523.46 415.22,524.13 414.78,525.80 414.52,527.96 413.29,530.08"/>
    </edge>
    <edge id=":1926948273_0" function="internal">
        <lane id=":1926948273_0_0" index="0" disallow="pedestrian tram rail_urban rail rail_electric rail_fast ship container cable_car subway aircraft wheelchair scooter drone" speed="6.30" length="9.04" shape="36.02,180.63 33.92,179.26 31.93,178.95 30.07,179.70 28.33,181.52"/>
    </edge>
    <edge id=":1926948273_1" function="internal">
        <lane id=":1926948273_1_0" index="0" disallow="pedestrian tram rail_urban rail rail_electric rail_fast ship container cable_car subway aircraft wheelchair scooter drone" speed="13.89" length="12.06" shape="36.02,180.63 26.90,172.75"/>
    </edge>
    <edge id=":1926948273_2" function="internal">
        <lane id=":1926948273_2_0" index="0" disallow="pedestrian tram rail_urban rail rail_electric rail_fast ship container cable_car subway aircraft wheelchair scooter drone" speed="13.89" length="11.98" shape="34.11,171.07 32.28,173.76 31.12,176.22 30.02,178.71 28.33,181.52"/>
    </edge>
    <edge id=":1926948273_3" function="internal">
        <lane id=":1926948273_3_0" index="0" disallow="pedestrian tram rail_urban rail rail_electric rail_fast ship container cable_car subway aircraft wheelchair scooter drone" speed="6.27" length="4.46" shape="34.11,171.07 32.24,172.90 30.59,173.70"/>
    </edge>
    <edge id=":1926948273_4" function="internal">
        <lane id=":1926948273_4_0" index="0" disallow="pedestrian tram rail_urban rail rail_electric rail_fast ship container cable_car subway aircraft wheelchair scooter drone" speed="6.27" length="3.97" shape="30.59,173.70 30.42,173.79 28.64,173.74 26.90,172.75"/>
    </edge>
    <edge id=":1973482489_0" function="internal">
        <lane id=":1973482489_0_0" index="0" disallow="pedestrian tram rail_urban rail rail_electric rail_fast ship container cable_car subway aircraft wheelchair scooter drone" speed="7.29" length="10.00" shape="308.04,148.35 309.75,150.88 311.65,152.47 313.73,153.12 316.00,152.82"/>
        <lane id=":1973482489_0_1" index="1" disallow="pedestrian tram rail_urban rail rail_electric rail_fast ship container cable_car subway aircraft wheelchair scooter drone" speed="8.09" length="12.51" shape="308.04,148.35 310.39,152.14 312.66,154.66 314.86,155.90 316.99,155.87"/>
    </edge>
    <edge id=":1973482489_2" function="internal">
        <lane id=":1973482489_2_0" index="0" disallow="pedestrian tram rail_urban rail rail_electric rail_fast ship container cable_car subway aircraft wheelchair scooter drone" speed="3.65" length="4.67" shape="308.04,148.35 307.88,149.78 307.36,150.51 306.47,150.52 305.20,149.83"/>
    </edge>
    <edge id=":1973482489_3" function="internal">
        <lane id=":1973482489_3_0" index="0" disallow="pedestrian tram rail_urban rail rail_electric rail_fast ship container cable_car subway aircraft wheelchair scooter drone" speed="6.32" length="5.34" shape="302.16,157.31 304.61,156.11 305.93,154.46 305.98,153.96"/>
    </edge>
    <edge id=":1973482489_4" function="internal">
        <lane id=":1973482489_4_0" index="0" disallow="pedestrian tram rail_urban rail rail_electric rail_fast ship container cable_car subway aircraft wheelchair scooter drone" speed="13.89" length="14.55" shape="302.16,157.31 316.00,152.82"/>
        <lane id=":1973482489_4_1" index="1" disallow="pedestrian tram rail_urban rail rail_electric rail_fast ship container cable_car subway aircraft wheelchair scooter drone" speed="13.89" length="14.55" shape="303.15,160.35 316.99,155.87"/>
        <lane id=":1973482489_4_2" index="2" disallow="pedestrian tram rail_urban rail rail_electric rail_fast ship container cable_car subway aircraft wheelchair scooter drone" speed="13.89" length="14.55" shape="304.13,163.39 317.97,158.91"/>
        <lane id=":1973482489_4_3" index="3" disallow="pedestrian tram rail_urban rail rail_electric rail_fast ship container cable_car subway aircraft wheelchair scooter drone" speed="13.89" length="14.55" shape="305.12,166.44 318.96,161.95"/>
    </edge>
    <edge id=":1973482489_8" function="internal">
        <lane id=":1973482489_8_0" index="0" disallow="pedestrian tram rail_urban rail rail_electric rail_fast ship container cable_car subway aircraft wheelchair scooter drone" speed="6.32" length="4.30" shape="305.98,153.96 306.13,152.37 305.20,149.83"/>
    </edge>
    <edge id=":1973482489_c0" function="crossing" crossingEdges="186602412#0 -186602412#3">
        <lane id=":1973482489_c0_0" index="0" allow="pedestrian" speed="2.78" length="6.40" width="4.00" shape="304.74,152.35 310.39,149.35" outlineShape="303.80,150.58 309.46,147.58 309.56,147.56 309.46,147.62 310.34,149.03 311.28,150.15 312.03,150.75 311.33,151.12 305.68,154.12 303.64,154.70 303.77,154.60 304.29,153.81 304.47,152.87 304.31,151.80"/>
    </edge>
    <edge id=":1973482489_w0" function="walkingarea">
        <lane id=":1973482489_w0_0" index="0" allow="pedestrian" speed="2.78" length="4.31" width="4.00" shape="315.51,151.30 314.89,149.40 311.22,146.67 309.46,147.62 310.34,149.03 311.28,150.15 312.26,150.93 313.30,151.39 314.38,151.51"/>
    </edge>
    <edge id=":1973482489_w1" function="walkingarea">
        <lane id=":1973482489_w1_0" index="0" allow="pedestrian" speed="2.78" length="3.52" width="4.00" shape="303.78,150.56 302.02,151.51 301.05,153.88 301.67,155.78 302.89,155.26 303.77,154.60 304.29,153.81 304.47,152.87 304.31,151.80"/>
    </edge>
    <edge id=":2013717680_0" function="internal">
        <lane id=":2013717680_0_0" index="0" disallow="pedestrian tram rail_urban rail rail_electric rail_fast ship container cable_car subway aircraft wheelchair scooter drone" speed="3.65" length="4.67" shape="251.33,-0.10 252.20,-1.25 253.03,-1.60 253.80,-1.15 254.53,0.10"/>
    </edge>
    <edge id=":2013717680_w0" function="walkingarea">
        <lane id=":2013717680_w0_0" index="0" allow="pedestrian" speed="2.78" length="8.40" width="2.00" shape="256.12,0.20 258.12,0.32 247.74,-0.32 249.74,-0.20"/>
    </edge>
    <edge id=":2081945236_0" function="internal">
        <lane id=":2081945236_0_0" index="0" disallow="pedestrian tram rail_urban rail rail_electric rail_fast ship container cable_car subway aircraft wheelchair scooter drone" speed="6.33" length="8.43" shape="63.74,190.38 62.84,188.38 61.44,187.15 59.54,186.69 57.14,187.00"/>
    </edge>
    <edge id=":2081945236_1" function="internal">
        <lane id=":2081945236_1_0" index="0" disallow="pedestrian tram rail_urban rail rail_electric rail_fast ship container cable_car subway aircraft wheelchair scooter drone" speed="13.89" length="10.23" shape="63.74,190.38 62.79,187.49 61.91,185.57 61.02,183.68 60.07,180.85"/>
    </edge>
    <edge id=":2081945236_2" function="internal">
        <lane id=":2081945236_2_0" index="0" disallow="pedestrian tram rail_urban rail rail_electric rail_fast ship container cable_car subway aircraft wheelchair scooter drone" speed="6.43" length="8.19" shape="63.74,190.38 63.16,187.53 63.17,185.34 63.76,183.81 64.92,182.94"/>
    </edge>
    <edge id=":2081945236_3" function="internal">
        <lane id=":2081945236_3_0" index="0" disallow="pedestrian tram rail_urban rail rail_electric rail_fast ship container cable_car subway aircraft wheelchair scooter drone" speed="13.89" length="9.01" shape="66.03,185.94 63.48,186.60 61.63,186.63 59.76,186.58 57.14,187.00"/>
    </edge>
    <edge id=":2081945236_4" function="internal">
        <lane id=":2081945236_4_0" index="0" disallow="pedestrian tram rail_urban rail rail_electric rail_fast ship container cable_car subway aircraft wheelchair scooter drone" speed="6.32" length="8.96" shape="66.03,185.94 64.12,186.19 62.49,185.43 61.14,183.65 60.07,180.85"/>
    </edge>
    <edge id=":2444664370_0" function="internal">
        <lane id=":2444664370_0_0" index="0" disallow="pedestrian tram rail_urban rail rail_electric rail_fast ship container cable_car subway aircraft wheelchair scooter drone" speed="13.89" length="10.43" shape="397.75,289.75 398.35,292.45 399.60,294.06 401.03,295.64 402.20,298.25"/>
        <lane id=":2444664370_0_1" index="1" disallow="pedestrian tram rail_urban rail rail_electric rail_fast ship container cable_car subway aircraft wheelchair scooter drone" speed="13.89" length="10.43" shape="394.55,289.87 395.17,292.77 396.42,294.52 397.88,296.24 399.10,299.05"/>
        <lane id=":2444664370_0_2" index="2" disallow="pedestrian tram rail_urban rail rail_electric rail_fast ship container cable_car subway aircraft wheelchair scooter drone" speed="13.89" length="10.43" shape="391.35,290.00 391.98,293.09 393.25,294.98 394.73,296.84 396.00,299.84"/>
    </edge>
    <edge id=":2444664370_w0" function="walkingarea">
        <lane id=":2444664370_w0_0" index="0" allow="pedestrian" speed="2.78" length="8.17" width="2.00" shape="403.75,297.86 405.69,297.36 404.54,289.49 402.54,289.57 402.62,291.35 402.70,292.67 402.82,293.76 403.01,294.83 403.31,296.12"/>
    </edge>
    <edge id=":2664674480_0" function="internal">
        <lane id=":2664674480_0_0" index="0" disallow="pedestrian tram rail_urban rail rail_electric rail_fast ship container cable_car subway aircraft wheelchair scooter drone" speed="13.89" length="6.58" shape="278.12,622.60 276.44,623.57 275.40,624.40 274.42,625.33 272.93,626.60"/>
    </edge>
    <edge id=":2664674480_1" function="internal">
        <lane id=":2664674480_1_0" index="0" disallow="pedestrian tram rail_urban rail rail_electric rail_fast ship container cable_car subway aircraft wheelchair scooter drone" speed="13.45" length="6.66" shape="278.12,622.60 276.33,623.26 275.00,623.26 273.59,622.99 271.61,622.83"/>
    </edge>
    <edge id=":2690921409_0" function="internal">
        <lane id=":2690921409_0_0" index="0" disallow="pedestrian tram rail_urban rail rail_electric rail_fast ship container cable_car subway aircraft wheelchair scooter drone" speed="5.98" length="7.26" shape="571.66,96.24 572.33,98.56 573.28,100.14 574.50,100.99 576.00,101.10"/>
    </edge>
    <edge id=":2690921409_1" function="internal">
        <lane id=":2690921409_1_0" index="0" disallow="pedestrian tram rail_urban rail rail_electric rail_fast ship container cable_car subway aircraft wheelchair scooter drone" speed="13.89" length="6.80" shape="569.24,102.23 576.00,101.10"/>
        <lane id=":2690921409_1_1" index="1" disallow="pedestrian tram rail_urban rail rail_electric rail_fast ship container cable_car subway aircraft wheelchair scooter drone" speed="13.89" length="6.80" shape="569.79,105.38 576.50,104.26"/>
        <lane id=":2690921409_1_2" index="2" disallow="pedestrian tram rail_urban rail rail_electric rail_fast ship container cable_car subway aircraft wheelchair scooter drone" speed="13.89" length="6.80" shape="570.34,108.53 577.00,107.42"/>
    </edge>
    <edge id=":2690921409_c0" function="crossing" crossingEdges="420578931#1">
        <lane id=":2690921409_c0_0" index="0" allow="pedestrian" speed="2.78" length="3.20" width="4.00" shape="570.48,98.51 573.62,97.89" outlineShape="570.09,96.55 573.23,95.93 575.75,99.52 575.44,97.54 573.23,95.93 574.01,99.85 570.87,100.47 568.97,100.65 569.52,100.45 569.93,100.05 570.18,99.46 570.30,98.68 570.27,97.71"/>
    </edge>
    <edge id=":2690921409_w0" function="walkingarea">
        <lane id=":2690921409_w0_0" index="0" allow="pedestrian" speed="2.78" length="2.08" width="4.00" shape="575.75,99.52 575.44,97.54 573.23,95.93 573.51,97.10 573.85,98.05 574.24,98.76 574.69,99.24 575.19,99.50"/>
    </edge>
    <edge id=":2690921409_w1" function="walkingarea">
        <lane id=":2690921409_w1_0" index="0" allow="pedestrian" speed="2.78" length="2.04" width="4.00" shape="570.09,96.55 568.63,98.68 568.97,100.65 569.52,100.45 569.93,100.05 570.18,99.46 570.30,98.68 570.27,97.71"/>
    </edge>
    <edge id=":2749340167_0" function="internal">
        <lane id=":2749340167_0_0" index="0" disallow="pedestrian tram rail_urban rail rail_electric rail_fast ship container cable_car subway aircraft wheelchair scooter drone" speed="13.89" length="9.50" shape="79.66,174.32 80.22,177.07 80.38,179.01 80.56,180.94 81.19,183.67"/>
    </edge>
    <edge id=":2749340167_1" function="internal">
        <lane id=":2749340167_1_0" index="0" disallow="pedestrian tram rail_urban rail rail_electric rail_fast ship container cable_car subway aircraft wheelchair scooter drone" speed="6.56" length="8.55" shape="79.66,174.32 80.09,177.01 79.84,179.13 78.91,180.68 77.31,181.66"/>
    </edge>
    <edge id=":2749340167_2" function="internal">
        <lane id=":2749340167_2_0" index="0" disallow="pedestrian tram rail_urban rail rail_electric rail_fast ship container cable_car subway aircraft wheelchair scooter drone" speed="6.00" length="7.89" shape="76.27,178.63 77.76,178.53 79.07,179.33 80.21,181.05 81.19,183.67"/>
    </edge>
    <edge id=":2760755466_0" function="internal">
        <lane id=":2760755466_0_0" index="0" disallow="pedestrian tram rail_urban rail rail_electric rail_fast ship container cable_car subway aircraft wheelchair scooter drone" speed="3.65" length="4.67" shape="119.89,17.88 120.33,16.51 120.99,15.90 121.87,16.07 122.97,17.00"/>
    </edge>
    <edge id=":2760755466_w0" function="walkingarea">
        <lane id=":2760755466_w0_0" index="0" allow="pedestrian" speed="2.78" length="8.40" width="2.00" shape="124.51,16.56 126.43,16.01 116.43,18.87 118.35,18.32"/>
    </edge>
    <edge id=":2877022366_0" function="internal">
        <lane id=":2877022366_0_0" index="0" disallow="pedestrian tram rail_urban rail rail_electric rail_fast ship container cable_car subway aircraft wheelchair scooter drone" speed="13.89" length="0.30" shape="634.43,91.84 634.69,91.80"/>
        <lane id=":2877022366_0_1" index="1" disallow="pedestrian tram rail_urban rail rail_electric rail_fast ship container cable_car subway aircraft wheelchair scooter drone" speed="13.89" length="0.30" shape="634.93,95.00 635.23,94.95"/>
        <lane id=":2877022366_0_2" index="2" disallow="pedestrian tram rail_urban rail rail_electric rail_fast ship container cable_car subway aircraft wheelchair scooter drone" speed="13.89" length="0.30" shape="635.43,98.16 635.78,98.10"/>
    </edge>
    <edge id=":2877022366_w0" function="walkingarea">
        <lane id=":2877022366_w0_0" index="0" allow="pedestrian" speed="2.78" length="0.22" width="2.00" shape="634.41,90.22 634.07,88.25 633.87,88.28 634.18,90.26"/>
    </edge>
    <edge id=":3086736515_0" function="internal">
        <lane id=":3086736515_0_0" index="0" disallow="pedestrian bicycle tram rail_urban rail rail_electric rail_fast ship container cable_car subway aircraft wheelchair scooter drone" speed="3.65" length="4.67" shape="883.59,403.94 884.84,404.66 885.29,405.43 884.94,406.25 883.80,407.13"/>
    </edge>
    <edge id=":3086736518_0" function="internal">
        <lane id=":3086736518_0_0" index="0" disallow="pedestrian tram rail_urban rail rail_electric rail_fast ship container cable_car subway aircraft wheelchair scooter drone" speed="12.15" length="13.13" shape="576.65,439.77 574.18,438.81 570.58,438.68 565.83,439.38 563.82,439.90"/>
    </edge>
    <edge id=":3086736518_1" function="internal">
        <lane id=":3086736518_1_0" index="0" disallow="pedestrian tram rail_urban rail rail_electric rail_fast ship container cable_car subway aircraft wheelchair scooter drone" speed="13.89" length="13.84" shape="576.65,439.77 573.03,437.75 570.19,436.97 567.40,436.14 563.91,433.95"/>
        <lane id=":3086736518_1_1" index="1" disallow="pedestrian tram rail_urban rail rail_electric rail_fast ship container cable_car subway aircraft wheelchair scooter drone" speed="13.89" length="13.84" shape="576.65,439.77 565.93,431.46"/>
    </edge>
    <edge id=":3086736518_3" function="internal">
        <lane id=":3086736518_3_0" index="0" disallow="pedestrian bicycle tram rail_urban rail rail_electric rail_fast ship container cable_car subway aircraft wheelchair scooter drone" speed="6.90" length="3.40" shape="576.65,439.77 574.38,437.24"/>
    </edge>
    <edge id=":3086736518_4" function="internal">
        <lane id=":3086736518_4_0" index="0" disallow="pedestrian tram rail_urban rail rail_electric rail_fast ship container cable_car subway aircraft wheelchair scooter drone" speed="3.65" length="1.44" shape="576.65,439.77 576.15,438.42"/>
    </edge>
    <edge id=":3086736518_16" function="internal">
        <lane id=":3086736518_16_0" index="0" disallow="pedestrian tram rail_urban rail rail_electric rail_fast ship container cable_car subway aircraft wheelchair scooter drone" speed="12.15" length="4.00" shape="563.82,439.90 559.95,440.91"/>
    </edge>
    <edge id=":3086736518_17" function="internal">
        <lane id=":3086736518_17_0" index="0" disallow="pedestrian bicycle tram rail_urban rail rail_electric rail_fast ship container cable_car subway aircraft wheelchair scooter drone" speed="6.90" length="12.67" shape="574.38,437.24 574.93,434.97 578.30,432.97 584.48,431.24"/>
    </edge>
    <edge id=":3086736518_18" function="internal">
        <lane id=":3086736518_18_0" index="0" disallow="pedestrian tram rail_urban rail rail_electric rail_fast ship container cable_car subway aircraft wheelchair scooter drone" speed="3.65" length="3.23" shape="576.15,438.42 576.29,437.54 577.09,437.12 578.53,437.18"/>
    </edge>
    <edge id=":3086736518_5" function="internal">
        <lane id=":3086736518_5_0" index="0" disallow="pedestrian bicycle tram rail_urban rail rail_electric rail_fast ship container cable_car subway aircraft wheelchair scooter drone" speed="5.03" length="7.78" shape="585.14,434.37 581.68,435.19 579.42,435.93 578.37,436.59 578.53,437.18"/>
    </edge>
    <edge id=":3086736518_6" function="internal">
        <lane id=":3086736518_6_0" index="0" disallow="pedestrian bicycle tram rail_urban rail rail_electric rail_fast ship container cable_car subway aircraft wheelchair scooter drone" speed="13.89" length="26.03" shape="585.14,434.37 559.95,440.91"/>
    </edge>
    <edge id=":3086736518_7" function="internal">
        <lane id=":3086736518_7_0" index="0" disallow="pedestrian bicycle tram rail_urban rail rail_electric rail_fast ship container cable_car subway aircraft wheelchair scooter drone" speed="13.35" length="19.82" shape="585.14,434.37 580.00,434.85 574.48,434.44 569.49,433.27 565.93,431.46"/>
    </edge>
    <edge id=":3086736518_8" function="internal">
        <lane id=":3086736518_8_0" index="0" disallow="pedestrian bicycle tram rail_urban rail rail_electric rail_fast ship container cable_car subway aircraft wheelchair scooter drone" speed="3.65" length="4.67" shape="585.14,434.37 583.80,433.83 583.25,433.13 583.47,432.27 584.48,431.24"/>
    </edge>
    <edge id=":3086736518_9" function="internal">
        <lane id=":3086736518_9_0" index="0" disallow="pedestrian bicycle tram rail_urban rail rail_electric rail_fast ship container cable_car subway aircraft wheelchair scooter drone" speed="11.95" length="11.70" shape="569.96,426.49 573.73,429.11 577.41,430.78 580.42,431.37"/>
    </edge>
    <edge id=":3086736518_10" function="internal">
        <lane id=":3086736518_10_0" index="0" disallow="pedestrian tram rail_urban rail rail_electric rail_fast ship container cable_car subway aircraft wheelchair scooter drone" speed="13.89" length="13.83" shape="569.96,426.49 572.76,429.42 574.16,431.95 575.60,434.42 578.53,437.18"/>
    </edge>
    <edge id=":3086736518_11" function="internal">
        <lane id=":3086736518_11_0" index="0" disallow="pedestrian tram rail_urban rail rail_electric rail_fast ship container cable_car subway aircraft wheelchair scooter drone" speed="7.74" length="3.16" shape="567.94,428.98 569.93,431.43"/>
    </edge>
    <edge id=":3086736518_12" function="internal">
        <lane id=":3086736518_12_0" index="0" disallow="pedestrian tram rail_urban rail rail_electric rail_fast ship container cable_car subway aircraft wheelchair scooter drone" speed="3.65" length="1.44" shape="567.94,428.98 568.37,430.36"/>
    </edge>
    <edge id=":3086736518_19" function="internal">
        <lane id=":3086736518_19_0" index="0" disallow="pedestrian bicycle tram rail_urban rail rail_electric rail_fast ship container cable_car subway aircraft wheelchair scooter drone" speed="11.95" length="4.08" shape="580.42,431.37 580.99,431.48 584.48,431.24"/>
    </edge>
    <edge id=":3086736518_20" function="internal">
        <lane id=":3086736518_20_0" index="0" disallow="pedestrian tram rail_urban rail rail_electric rail_fast ship container cable_car subway aircraft wheelchair scooter drone" speed="7.74" length="16.06" shape="569.93,431.43 570.65,432.33 570.23,435.43 566.66,438.29 559.95,440.91"/>
    </edge>
    <edge id=":3086736518_21" function="internal">
        <lane id=":3086736518_21_0" index="0" disallow="pedestrian tram rail_urban rail rail_electric rail_fast ship container cable_car subway aircraft wheelchair scooter drone" speed="3.65" length="3.23" shape="568.37,430.36 568.18,431.23 567.36,431.60 565.93,431.46"/>
    </edge>
    <edge id=":3086736518_13" function="internal">
        <lane id=":3086736518_13_0" index="0" disallow="pedestrian tram rail_urban rail rail_electric rail_fast ship container cable_car subway aircraft wheelchair scooter drone" speed="5.10" length="7.44" shape="559.06,437.95 562.02,436.87 563.81,435.85 564.44,434.88 563.91,433.95"/>
    </edge>
    <edge id=":3086736518_14" function="internal">
        <lane id=":3086736518_14_0" index="0" disallow="pedestrian bicycle tram rail_urban rail rail_electric rail_fast ship container cable_car subway aircraft wheelchair scooter drone" speed="13.89" length="26.30" shape="559.06,437.95 564.36,436.42 571.73,434.42 579.12,432.51 584.48,431.24"/>
    </edge>
    <edge id=":3086736518_15" function="internal">
        <lane id=":3086736518_15_0" index="0" disallow="pedestrian tram rail_urban rail rail_electric rail_fast ship container cable_car subway aircraft wheelchair scooter drone" speed="12.96" length="19.77" shape="559.06,437.95 564.36,436.76 570.17,436.15 575.29,436.25 578.53,437.18"/>
    </edge>
    <edge id=":3086736518_c0" function="crossing" crossingEdges="593847704#0 -593847704#2">
        <lane id=":3086736518_c0_0" index="0" allow="pedestrian" speed="2.78" length="6.40" width="4.00" shape="582.20,430.08 583.51,436.35" outlineShape="584.15,429.67 585.47,435.93 581.06,434.41 585.47,435.93 581.06,434.41 580.08,429.76 582.08,429.91"/>
    </edge>
    <edge id=":3086736518_c1" function="crossing" crossingEdges="E0 -E0">
        <lane id=":3086736518_c1_0" index="0" allow="pedestrian" speed="2.78" length="6.31" width="4.00" shape="562.33,441.86 560.49,435.83" outlineShape="560.41,442.45 558.58,436.41 562.53,435.65 561.65,436.75 558.58,436.41 562.53,435.65 564.27,441.37"/>
    </edge>
    <edge id=":3086736518_w0" function="walkingarea">
        <lane id=":3086736518_w0_0" index="0" allow="pedestrian" speed="2.78" length="12.80" width="4.00" shape="560.41,442.45 574.54,442.69 575.71,441.07 574.41,440.47 572.61,440.20 570.31,440.27 567.51,440.66 564.21,441.39"/>
    </edge>
    <edge id=":3086736518_w1" function="walkingarea">
        <lane id=":3086736518_w1_0" index="0" allow="pedestrian" speed="2.78" length="3.69" width="4.00" shape="579.47,435.88 580.64,434.26 585.47,435.93 581.56,436.76"/>
    </edge>
    <edge id=":3086736518_w2" function="walkingarea">
        <lane id=":3086736518_w2_0" index="0" allow="pedestrian" speed="2.78" length="11.99" width="4.00" shape="584.15,429.67 572.22,423.70 570.96,425.25 573.29,426.96 575.56,428.28 577.79,429.21 579.96,429.76 582.08,429.91"/>
    </edge>
    <edge id=":3086736518_w3" function="walkingarea">
        <lane id=":3086736518_w3_0" index="0" allow="pedestrian" speed="2.78" length="1.79" width="4.00" shape="562.90,435.19 561.65,436.75 558.58,436.41 559.29,436.27 560.30,436.11 561.39,435.93 562.34,435.73 562.92,435.48"/>
    </edge>
    <edge id=":3086736522_0" function="internal">
        <lane id=":3086736522_0_0" index="0" disallow="pedestrian bicycle tram rail_urban rail rail_electric rail_fast ship container cable_car subway aircraft wheelchair scooter drone" speed="7.08" length="8.70" shape="193.39,555.65 190.32,557.01 188.17,558.28 186.92,559.45 186.59,560.54"/>
    </edge>
    <edge id=":3086736522_1" function="internal">
        <lane id=":3086736522_1_0" index="0" disallow="pedestrian bicycle tram rail_urban rail rail_electric rail_fast ship container cable_car subway aircraft wheelchair scooter drone" speed="13.89" length="11.48" shape="193.39,555.65 182.58,559.53"/>
    </edge>
    <edge id=":3086736522_2" function="internal">
        <lane id=":3086736522_2_0" index="0" disallow="pedestrian bicycle tram rail_urban rail rail_electric rail_fast ship container cable_car subway aircraft wheelchair scooter drone" speed="5.57" length="4.06" shape="186.17,550.24 186.53,552.22 187.65,553.28 188.15,553.32"/>
    </edge>
    <edge id=":3086736522_3" function="internal">
        <lane id=":3086736522_3_0" index="0" disallow="pedestrian tram rail_urban rail rail_electric rail_fast ship container cable_car subway aircraft wheelchair scooter drone" speed="13.89" length="10.32" shape="186.17,550.24 186.13,553.31 186.13,555.41 186.26,557.50 186.59,560.54"/>
    </edge>
    <edge id=":3086736522_4" function="internal">
        <lane id=":3086736522_4_0" index="0" disallow="pedestrian bicycle tram rail_urban rail rail_electric rail_fast ship container cable_car subway aircraft wheelchair scooter drone" speed="7.91" length="10.52" shape="186.17,550.24 185.92,553.89 185.23,556.66 184.12,558.53 182.58,559.53"/>
    </edge>
    <edge id=":3086736522_7" function="internal">
        <lane id=":3086736522_7_0" index="0" disallow="pedestrian bicycle tram rail_urban rail rail_electric rail_fast ship container cable_car subway aircraft wheelchair scooter drone" speed="5.57" length="4.16" shape="188.15,553.32 189.55,553.44 192.20,552.68"/>
    </edge>
    <edge id=":3086736522_5" function="internal">
        <lane id=":3086736522_5_0" index="0" disallow="pedestrian bicycle tram rail_urban rail rail_electric rail_fast ship container cable_car subway aircraft wheelchair scooter drone" speed="13.89" length="11.24" shape="181.62,556.47 192.20,552.68"/>
    </edge>
    <edge id=":3086736522_6" function="internal">
        <lane id=":3086736522_6_0" index="0" disallow="pedestrian bicycle tram rail_urban rail rail_electric rail_fast ship container cable_car subway aircraft wheelchair scooter drone" speed="5.70" length="7.65" shape="181.62,556.47 183.56,556.22 185.03,556.81 186.04,558.25 186.59,560.54"/>
    </edge>