<additional>
    <tlLogic id="joinedS_3086736518_655375232_655375233" type="static" programID="integrated_0" offset="0">
        <phase duration="99" state="GGGGGGGGGGGGGGGGGGGGGGGGGGGGGGGGGGGGGGGGGrGGGGG"/>
        <phase duration="4" state="yyyyyyyyyyyyyyyyyyyyyyyyyyyyyyyyyyyyyyyyyryyyyy"/>
        <phase duration="4" state="rrrrrrrrrrrrrrrrrrrrrrrrrrrrrrrrrrrrrrrrrrrrrrr"/>
        <phase duration="68" state="rrrrrrrrrrrrrrrrrrrrrrrrrrrrrrrrrrrrrrrrrGrrrrr"/>
        <phase duration="3" state="rrrrrrrrrrrrrrrrrrrrrrrrrrrrrrrrrrrrrrrrryrrrrr"/>
        <phase duration="5" state="rrrrrrrrrrrrrrrrrrrrrrrrrrrrrrrrrrrrrrrrrrrrrrr"/>
        <phase duration="12" state="GGGGGGGGGGGGGGGGGGGGGGGGGGGGGGGGGGGGGGGGGrGGGGG"/>
        <phase duration="0" state="yyyyyyyyyyyyyyyyyyyyyyyyyyyyyyyyyyyyyyyyyryyyyy"/>
        <phase duration="0" state="rrrrrrrrrrrrrrrrrrrrrrrrrrrrrrrrrrrrrrrrrrrrrrr"/>
        <phase duration="5" state="rrrrrrrrrrrrrrrrrrrrrrrrrrrrrrrrrrrrrrrrrGrrrrr"/>
        <phase duration="0" state="rrrrrrrrrrrrrrrrrrrrrrrrrrrrrrrrrrrrrrrrryrrrrr"/>
        <phase duration="0" state="rrrrrrrrrrrrrrrrrrrrrrrrrrrrrrrrrrrrrrrrrrrrrrr"/>
    </tlLogic>
    <tlLogic id="joinedS_3086736522_655375108_655375247_655375401_#1more" type="static" programID="integrated_0" offset="0">
        <phase duration="114" state="GGrrrGGrrrGGGGrrGGrrGGGrrGGGGrrGGrGGrrGG"/>
        <phase duration="3" state="yyrrryyrrryyyyrryyrryyyrryyyyrryyryyrryy"/>
        <phase duration="3" state="rrrrrrrrrrrrrrrrrrrrrrrrrrrrrrrrrrrrrrrr"/>
        <phase duration="60" state="rrGGGrrGGGrrrrGGrrGGrrrGGrrrrGGrrGrrGGrr"/>
        <phase duration="3" state="rryyyrryyyrrrryyrryyrrryyrrrryyrryrryyrr"/>
        <phase duration="2" state="rrrrrrrrrrrrrrrrrrrrrrrrrrrrrrrrrrrrrrrr"/>
        <phase duration="15" state="GGrrrGGrrrGGGGrrGGrrGGGrrGGGGrrGGrGGrrGG"/>
        <phase duration="0" state="yyrrryyrrryyyyrryyrryyyrryyyyrryyryyrryy"/>
        <phase duration="0" state="rrrrrrrrrrrrrrrrrrrrrrrrrrrrrrrrrrrrrrrr"/>
    </tlLogic>
    <tlLogic id="joinedS_619136881_619136899_cluster_4510442270_5296993511_5296993513_619136931_#1more_cluster_619136929_619136942" type="static" programID="integrated_0" offset="0">
        <phase duration="71" state="GGGGrrrGGGrrGGGGGGGGGGrrrrrrGGr"/>
        <phase duration="3" state="yyyyrrryyyrryyyyyyyyyyrrrrrryyr"/>
        <phase duration="3" state="rrrrrrrrrrrrrrrrrrrrrrrrrrrrrrr"/>
        <phase duration="39" state="rrrrGGGrrrGGrrrrrrrrrrGGGGGGrrG"/>
        <phase duration="3" state="rrrryyyrrryyrrrrrrrrrryyyyyyrry"/>
        <phase duration="3" state="rrrrrrrrrrrrrrrrrrrrrrrrrrrrrrr"/>
        <phase duration="32" state="GGGGrrrGGGrrGGGGGGGGGGrrrrrrGGr"/>
        <phase duration="3" state="yyyyrrryyyrryyyyyyyyyyrrrrrryyr"/>
        <phase duration="3" state="rrrrrrrrrrrrrrrrrrrrrrrrrrrrrrr"/>
        <phase duration="12" state="rrrrGGGrrrGGrrrrrrrrrrGGGGGGrrG"/>
        <phase duration="3" state="rrrryyyrrryyrrrrrrrrrryyyyyyrry"/>
        <phase duration="2" state="rrrrrrrrrrrrrrrrrrrrrrrrrrrrrrr"/>
        <phase duration="9" state="GGGGrrrGGGrrGGGGGGGGGGrrrrrrGGr"/>
        <phase duration="3" state="yyyyrrryyyrryyyyyyyyyyrrrrrryyr"/>
        <phase duration="3" state="rrrrrrrrrrrrrrrrrrrrrrrrrrrrrrr"/>
        <phase duration="3" state="rrrrGGGrrrGGrrrrrrrrrrGGGGGGrrG"/>
        <phase duration="3" state="rrrryyyrrryyrrrrrrrrrryyyyyyrry"/>
        <phase duration="2" state="rrrrrrrrrrrrrrrrrrrrrrrrrrrrrrr"/>
    </tlLogic>
    <tlLogic id="joinedS_622618015_622618144_622618197" type="static" programID="integrated_0" offset="0">
        <phase duration="94" state="GGrrrGGGGGrrrrGGGGGrGGr"/>
        <phase duration="4" state="yyrrryyyyyrrrryyyyyryyr"/>
        <phase duration="2" state="rrrrrrrrrrrrrrrrrrrrrrr"/>
        <phase duration="50" state="rrGGGrrrrrGGGGrrrrrGrrG"/>
        <phase duration="3" state="rryyyrrrrryyyyrrrrryrry"/>
        <phase duration="4" state="rrrrrrrrrrrrrrrrrrrrrrr"/>
        <phase duration="17" state="GGrrrGGGGGrrrrGGGGGrGGr"/>
        <phase duration="4" state="yyrrryyyyyrrrryyyyyryyr"/>
        <phase duration="2" state="rrrrrrrrrrrrrrrrrrrrrrr"/>
        <phase duration="5" state="rrGGGrrrrrGGGGrrrrrGrrG"/>
        <phase duration="0" state="rryyyrrrrryyyyrrrrryrry"/>
        <phase duration="0" state="rrrrrrrrrrrrrrrrrrrrrrr"/>
        <phase duration="5" state="GGrrrGGGGGrrrrGGGGGrGGr"/>
        <phase duration="0" state="yyrrryyyyyrrrryyyyyryyr"/>
        <phase duration="0" state="rrrrrrrrrrrrrrrrrrrrrrr"/>
        <phase duration="4" state="rrGGGrrrrrGGGGrrrrrGrrG"/>
        <phase duration="4" state="rryyyrrrrryyyyrrrrryrry"/>
        <phase duration="2" state="rrrrrrrrrrrrrrrrrrrrrrr"/>
    </tlLogic>
    <tlLogic id="joinedS_622618112_622618230" type="static" programID="integrated_0" offset="0">
        <phase duration="94" state="GGGrrrGGGrrrGrGr"/>
        <phase duration="4" state="yyyrrryyyrrryryr"/>
        <phase duration="2" state="rrrrrrrrrrrrrrrr"/>
        <phase duration="50" state="rrrGGGrrrGGGrGrG"/>
        <phase duration="3" state="rrryyyrrryyyryry"/>
        <phase duration="4" state="rrrrrrrrrrrrrrrr"/>
        <phase duration="17" state="GGGrrrGGGrrrGrGr"/>
        <phase duration="4" state="yyyrrryyyrrryryr"/>
        <phase duration="2" state="rrrrrrrrrrrrrrrr"/>
        <phase duration="5" state="rrrGGGrrrGGGrGrG"/>
        <phase duration="0" state="rrryyyrrryyyryry"/>
        <phase duration="0" state="rrrrrrrrrrrrrrrr"/>
        <phase duration="5" state="GGGrrrGGGrrrGrGr"/>
        <phase duration="0" state="yyyrrryyyrrryryr"/>
        <phase duration="0" state="rrrrrrrrrrrrrrrr"/>
        <phase duration="4" state="rrrGGGrrrGGGrGrG"/>
        <phase duration="4" state="rrryyyrrryyyryry"/>
        <phase duration="2" state="rrrrrrrrrrrrrrrr"/>
    </tlLogic>
    <tlLogic id="joinedS_655375228_655375239_655375240" type="static" programID="integrated_0" offset="0">
        <phase duration="72" state="rrrrGGGrrGGGGGrrrrGGGG"/>
        <phase duration="3" state="rrrryyyrryyyyyrrrryyyy"/>
        <phase duration="2" state="rrrrrrrrrrrrrrrrrrrrrr"/>
        <phase duration="60" state="GGGGrrrGGrrrrrGGGGrrrr"/>
        <phase duration="3" state="yyyyrrryyrrrrryyyyrrrr"/>
        <phase duration="2" state="rrrrrrrrrrrrrrrrrrrrrr"/>
        <phase duration="8" state="rrrrGGGrrGGGGGrrrrGGGG"/>
        <phase duration="0" state="rrrryyyrryyyyyrrrryyyy"/>
        <phase duration="0" state="rrrrrrrrrrrrrrrrrrrrrr"/>
    </tlLogic>
    <tlLogic id="655375241" type="static" programID="integrated_0" offset="0">
        <phase duration="80" state="G"/>
        <phase duration="3" state="y"/>
        <phase duration="2" state="r"/>
        <phase duration="45" state="G"/>
        <phase duration="3" state="y"/>
        <phase duration="2" state="r"/>
        <phase duration="10" state="G"/>
        <phase duration="3" state="y"/>
        <phase duration="2" state="r"/>
    </tlLogic>
    <tlLogic id="joinedS_3086736519_3086736520_631668954_631668971_#3more" type="static" programID="integrated_0" offset="0">
        <phase duration="57" state="rrrrrrrGGGGGGGGGGrrrrrrrrrGGGGGGGGGGGGGGGrrrrGGGGGrrrrrGrGrGrr"/>
        <phase duration="4" state="rrrrrrryyyyyyyyyyrrrrrrrrryyyyyyyyyyyyyyyrrrryyyyyrrrrryryryrr"/>
        <phase duration="4" state="rrrrrrrrrrrrrrrrrrrrrrrrrrrrrrrrrrrrrrrrrrrrrrrrrrrrrrrrrrrrrr"/>
        <phase duration="49" state="GGGGGGGrrrrrrrrrrGGGGGGGGGrrrrrrrrrrrrrrrGGGGrrrrrGGGGGrGrGrGG"/>
        <phase duration="4" state="yyyyyyyrrrrrrrrrryyyyyyyyyrrrrrrrrrrrrrrryyyyrrrrryyyyyryryryy"/>
        <phase duration="4" state="rrrrrrrrrrrrrrrrrrrrrrrrrrrrrrrrrrrrrrrrrrrrrrrrrrrrrrrrrrrrrr"/>
        <phase duration="47" state="rrrrrrrGGGGGGGGGGrrrrrrrrrGGGGGGGGGGGGGGGrrrrGGGGGrrrrrGrGrGrr"/>
        <phase duration="4" state="rrrrrrryyyyyyyyyyrrrrrrrrryyyyyyyyyyyyyyyrrrryyyyyrrrrryryryrr"/>
        <phase duration="4" state="rrrrrrrrrrrrrrrrrrrrrrrrrrrrrrrrrrrrrrrrrrrrrrrrrrrrrrrrrrrrrr"/>
        <phase duration="9" state="GGGGGGGrrrrrrrrrrGGGGGGGGGrrrrrrrrrrrrrrrGGGGrrrrrGGGGGrGrGrGG"/>
        <phase duration="0" state="yyyyyyyrrrrrrrrrryyyyyyyyyrrrrrrrrrrrrrrryyyyrrrrryyyyyryryryy"/>
        <phase duration="0" state="rrrrrrrrrrrrrrrrrrrrrrrrrrrrrrrrrrrrrrrrrrrrrrrrrrrrrrrrrrrrrr"/>
        <phase duration="5" state="rrrrrrrGGGGGGGGGGrrrrrrrrrGGGGGGGGGGGGGGGrrrrGGGGGrrrrrGrGrGrr"/>
        <phase duration="0" state="rrrrrrryyyyyyyyyyrrrrrrrrryyyyyyyyyyyyyyyrrrryyyyyrrrrryryryrr"/>
        <phase duration="0" state="rrrrrrrrrrrrrrrrrrrrrrrrrrrrrrrrrrrrrrrrrrrrrrrrrrrrrrrrrrrrrr"/>
        <phase duration="1" state="GGGGGGGrrrrrrrrrrGGGGGGGGGrrrrrrrrrrrrrrrGGGGrrrrrGGGGGrGrGrGG"/>
        <phase duration="4" state="yyyyyyyrrrrrrrrrryyyyyyyyyrrrrrrrrrrrrrrryyyyrrrrryyyyyryryryy"/>
        <phase duration="4" state="rrrrrrrrrrrrrrrrrrrrrrrrrrrrrrrrrrrrrrrrrrrrrrrrrrrrrrrrrrrrrr"/>
    </tlLogic>
    <tlLogic id="cluster_2038168688_655375573" type="static" programID="integrated_0" offset="0">
        <phase duration="97" state="rrrrGGGGGrrrGGGGGGrGrG"/>
        <phase duration="3" state="rrrryyyyyrrryyyyyyryry"/>
        <phase duration="2" state="rrrrrrrrrrrrrrrrrrrrrr"/>
        <phase duration="43" state="GGGGrrrrrGGGrrrrrrGrGr"/>
        <phase duration="3" state="yyyyrrrrryyyrrrrrryryr"/>
        <phase duration="2" state="rrrrrrrrrrrrrrrrrrrrrr"/>
    </tlLogic>
    <tlLogic id="cluster_2528018119_655375236" type="static" programID="integrated_0" offset="0">
        <phase duration="80" state="rrrrrrGGGGGrrrrGGGGGGGrGG"/>
        <phase duration="3" state="rrrrrryyyyyrrrryyyyyyyryy"/>
        <phase duration="2" state="rrrrrrrrrrrrrrrrrrrrrrrrr"/>
        <phase duration="67" state="GGGGGGrrrrrGGGGrrrrrrrGrr"/>
        <phase duration="3" state="yyyyyyrrrrryyyyrrrrrrryrr"/>
        <phase duration="3" state="rrrrrrrrrrrrrrrrrrrrrrrrr"/>
        <phase duration="17" state="rrrrrrGGGGGrrrrGGGGGGGrGG"/>
        <phase duration="0" state="rrrrrryyyyyrrrryyyyyyyryy"/>
        <phase duration="0" state="rrrrrrrrrrrrrrrrrrrrrrrrr"/>
        <phase duration="5" state="GGGGGGrrrrrGGGGrrrrrrrGrr"/>
        <phase duration="3" state="yyyyyyrrrrryyyyrrrrrrryrr"/>
        <phase duration="2" state="rrrrrrrrrrrrrrrrrrrrrrrrr"/>
        <phase duration="5" state="rrrrrrGGGGGrrrrGGGGGGGrGG"/>
        <phase duration="0" state="rrrrrryyyyyrrrryyyyyyyryy"/>
        <phase duration="0" state="rrrrrrrrrrrrrrrrrrrrrrrrr"/>
        <phase duration="5" state="GGGGGGrrrrrGGGGrrrrrrrGrr"/>
        <phase duration="3" state="yyyyyyrrrrryyyyrrrrrrryrr"/>
        <phase duration="2" state="rrrrrrrrrrrrrrrrrrrrrrrrr"/>
    </tlLogic>
    <tlLogic id="cluster_3431431575_4777363357_655375231_6982059025" type="static" programID="integrated_0" offset="0">
        <phase duration="121" state="GGGGGGGGGGGGr"/>
        <phase duration="3" state="yyyyyyyyyyyyr"/>
        <phase duration="3" state="rrrrrrrrrrrrr"/>
        <phase duration="40" state="rrrrrrrrrrrrG"/>
        <phase duration="3" state="rrrrrrrrrrrry"/>
        <phase duration="2" state="rrrrrrrrrrrrr"/>
        <phase duration="15" state="GGGGGGGGGGGGr"/>
        <phase duration="3" state="yyyyyyyyyyyyr"/>
        <phase duration="2" state="rrrrrrrrrrrrr"/>
        <phase duration="5" state="rrrrrrrrrrrrG"/>
        <phase duration="0" state="rrrrrrrrrrrry"/>
        <phase duration="0" state="rrrrrrrrrrrrr"/>
        <phase duration="3" state="GGGGGGGGGGGGr"/>
        <phase duration="0" state="yyyyyyyyyyyyr"/>
        <phase duration="0" state="rrrrrrrrrrrrr"/>
    </tlLogic>
    <tlLogic id="cluster_5372642442_631668976_631668981_631669076" type="static" programID="integrated_0" offset="0">
        <phase duration="68" state="GGGGGGrrrrrrrGGGGGGrrrrrrrGrGr"/>
        <phase duration="4" state="yyyyyyrrrrrrryyyyyyrrrrrrryryr"/>
        <phase duration="3" state="rrrrrrrrrrrrrrrrrrrrrrrrrrrrrr"/>
        <phase duration="68" state="rrrrrrrGGGGGrrrrrrrrGGGGGrrGrG"/>
        <phase duration="4" state="rrrrrrryyyyyrrrrrrrryyyyyrryry"/>
        <phase duration="3" state="rrrrrrrrrrrrrrrrrrrrrrrrrrrrrr"/>
    </tlLogic>
    <tlLogic id="cluster_623980090_623980094" type="static" programID="integrated_0" offset="0">
        <phase duration="90" state="GGGGrrrrGGGG"/>
        <phase duration="3" state="yyyyrrrryyyy"/>
        <phase duration="2" state="rrrrrrrrrrrr"/>
        <phase duration="86" state="rrrrGGGGrrrr"/>
        <phase duration="3" state="rrrryyyyrrrr"/>
        <phase duration="4" state="rrrrrrrrrrrr"/>
        <phase duration="6" state="GGGGrrrrGGGG"/>
        <phase duration="3" state="yyyyrrrryyyy"/>
        <phase duration="3" state="rrrrrrrrrrrr"/>
    </tlLogic>
    <tlLogic id="cluster_623980147_623980152" type="static" programID="integrated_0" offset="0">
        <phase duration="90" state="GGGGGGrrrrrrrrGG"/>
        <phase duration="3" state="yyyyyyrrrrrrrryy"/>
        <phase duration="2" state="rrrrrrrrrrrrrrrr"/>
        <phase duration="86" state="rrrrrrGGGGGGGGrr"/>
        <phase duration="3" state="rrrrrryyyyyyyyrr"/>
        <phase duration="4" state="rrrrrrrrrrrrrrrr"/>
        <phase duration="6" state="GGGGGGrrrrrrrrGG"/>
        <phase duration="3" state="yyyyyyrrrrrrrryy"/>
        <phase duration="3" state="rrrrrrrrrrrrrrrr"/>
    </tlLogic>
    <tlLogic id="GS_cluster_9383263990_9383263991_9383263992_9383263993" type="static" programID="integrated_0" offset="0">
        <phase duration="75" state="rrrGGGGGrrrGGGGGrGrG"/>
        <phase duration="3" state="rrryyyyyrrryyyyyryry"/>
        <phase duration="2" state="rrrrrrrrrrrrrrrrrrrr"/>
        <phase duration="40" state="GGGrrrrrGGGrrrrrGrGr"/>
        <phase duration="3" state="yyyrrrrryyyrrrrryryr"/>
        <phase duration="2" state="rrrrrrrrrrrrrrrrrrrr"/>
        <phase duration="20" state="rrrGGGGGrrrGGGGGrGrG"/>
        <phase duration="3" state="rrryyyyyrrryyyyyryry"/>
        <phase duration="2" state="rrrrrrrrrrrrrrrrrrrr"/>
    </tlLogic>
</additional>