<?xml version="1.0" encoding="UTF-8"?>

<!-- generated on 2026-02-18 20:53:02 by Eclipse SUMO duarouter Version 1.24.0
<duarouterConfiguration xmlns:xsi="http://www.w3.org/2001/XMLSchema-instance" xsi:noNamespaceSchemaLocation="http://sumo.dlr.de/xsd/duarouterConfiguration.xsd">

    <input>
        <net-file value="./data/ntut_network_split.net copy.xml"/>
        <route-files value="./data/final_output.rou.alt.xml"/>
        <junction-taz value="true"/>
    </input>

    <output>
        <output-file value="./data/final_output.rou.xml"/>
        <alternatives-output value="./data/final_output.rou.alt.xml.tmp"/>
    </output>

    <processing>
        <max-alternatives value="3"/>
        <weights.random-factor value="12"/>
    </processing>

    <report>
        <ignore-errors value="true"/>
    </report>

</duarouterConfiguration>
-->

<routes xmlns:xsi="http://www.w3.org/2001/XMLSchema-instance" xsi:noNamespaceSchemaLocation="http://sumo.dlr.de/xsd/routes_file.xsd">
    <vType id="Car0" length="5.00" vClass="passenger" color="green"/>
    <vehicle id="Flow0.0" type="Car0" depart="0.00" fromTaz="cluster_9383263990_9383263991_9383263992_9383263993" toTaz="cluster655375336_end_0_655375336_end_1_655375336_end_10_655375336_end_11_#8more">
        <route edges="506322844#0 263217604#0 594658760#0"/>
    </vehicle>
    <vType id="Car1" length="5.00" vClass="passenger" color="green"/>
    <vehicle id="Flow1.0" type="Car1" depart="0.00" fromTaz="cluster_2038168688_655375573" toTaz="3196998953">
        <route edges="506322848#0 506322844#0 263217604#0 303647015#0"/>
    </vehicle>
    <vType id="Car10" length="5.00" vClass="passenger" color="green"/>
    <vehicle id="Flow10.0" type="Car10" depart="0.00" fromTaz="cluster_9383263990_9383263991_9383263992_9383263993" toTaz="655375239">
        <route edges="506322844#0"/>
    </vehicle>
    <vType id="Car11" length="5.00" vClass="passenger" color="green"/>
    <vehicle id="Flow11.0" type="Car11" depart="0.00" fromTaz="3091610527" toTaz="6252193077">
        <route edges="49073247#0 196961377#3 593849718#0"/>
    </vehicle>
    <vType id="Car12" length="5.00" vClass="passenger" color="green"/>
    <vehicle id="Flow12.0" type="Car12" depart="0.00" fromTaz="cluster_3208478133_655375293_655375296_9631728504_#1more" toTaz="2444664370">
        <route edges="593844221#0 49695736#0 300077497#0 35274074#0 506322846#0 506322846#2 288135626#0"/>
    </vehicle>
    <vType id="Car13" length="5.00" vClass="passenger" color="green"/>
    <vehicle id="Flow13.0" type="Car13" depart="0.00" fromTaz="622618015" toTaz="622618015">
        <route edges="49073274 593852346 593849715 593849724"/>
    </vehicle>
    <vType id="Car14" length="5.00" vClass="passenger" color="green"/>
    <vehicle id="Flow14.0" type="Car14" depart="0.00" fromTaz="655375286" toTaz="2664674489">
        <route edges="244450512#0 244450512#1 260881642#0"/>
    </vehicle>
    <vType id="Car15" length="5.00" vClass="passenger" color="green"/>
    <vehicle id="Flow15.0" type="Car15" depart="0.00" fromTaz="cluster_2528018119_655375236" toTaz="cluster_2038168688_655375573">
        <route edges="300077497#0 35274074#0"/>
    </vehicle>
    <vType id="Car16" length="5.00" vClass="passenger" color="green"/>
    <vehicle id="Flow16.0" type="Car16" depart="0.00" fromTaz="622618159" toTaz="619136999">
        <route edges="48794890 668037874 196961377#0"/>
    </vehicle>
    <vType id="Car17" length="5.00" vClass="passenger" color="green"/>
    <vehicle id="Flow17.0" type="Car17" depart="0.00" fromTaz="cluster_3431431575_4777363357_655375231_6982059025" toTaz="3086736518">
        <route edges="336063376#0 593849711#2 593847701"/>
    </vehicle>
    <vType id="Car18" length="5.00" vClass="passenger" color="green"/>
    <vehicle id="Flow18.0" type="Car18" depart="0.00" fromTaz="1973482489" toTaz="2013717678">
        <route edges="506322846#2 288135628#0"/>
    </vehicle>
    <vType id="Car19" length="5.00" vClass="passenger" color="green"/>
    <vehicle id="Flow19.0" type="Car19" depart="0.00" fromTaz="619137000" toTaz="655374967">
        <route edges="51362359#0"/>
    </vehicle>
    <vType id="Car2" length="5.00" vClass="passenger" color="green"/>
    <vehicle id="Flow2.0" type="Car2" depart="0.00" fromTaz="3086736518" toTaz="1973482489">
        <route edges="593847705 593847703#0 300077497#0 35274074#0 506322846#0"/>
    </vehicle>
    <vType id="Car20" length="5.00" vClass="passenger" color="green"/>
    <vehicle id="Flow20.0" type="Car20" depart="0.00" fromTaz="cluster655375228_655375240" toTaz="cluster_9383263990_9383263991_9383263992_9383263993">
        <route edges="263217603#0"/>
    </vehicle>
    <vType id="Car21" length="5.00" vClass="passenger" color="green"/>
    <vehicle id="Flow21.0" type="Car21" depart="0.00" fromTaz="cluster_5372642442_631668976_631668981_631669076" toTaz="2690921409">
        <route edges="506322851#0"/>
    </vehicle>
    <vType id="Car22" length="5.00" vClass="passenger" color="green"/>
    <vehicle id="Flow22.0" type="Car22" depart="0.00" fromTaz="631668923" toTaz="cluster_5372642442_631668976_631668981_631669076">
        <route edges="1068234498#0"/>
    </vehicle>
    <vType id="Car23" length="5.00" vClass="passenger" color="green"/>
    <vehicle id="Flow23.0" type="Car23" depart="0.00" fromTaz="7782558678" toTaz="7782558675">
        <route edges="196961215#0 196961215#2 288878926#0 593849715 593849724 49073274 593852345#0 196961379#0"/>
    </vehicle>
    <vType id="Car24" length="5.00" vClass="passenger" color="green"/>
    <vehicle id="Flow24.0" type="Car24" depart="0.00" fromTaz="cluster619136880_619136881_cluster_4510442270_5296993511_5296993513_619136931_#1more" toTaz="622618165">
        <route edges="48794887#0"/>
    </vehicle>
    <vType id="Car25" length="5.00" vClass="passenger" color="green"/>
    <vehicle id="Flow25.0" type="Car25" depart="0.00" fromTaz="cluster3086736522_655375108_655375247_655375401_#1more" toTaz="cluster_3208478133_655375293_655375296_9631728504_#1more">
        <route edges="360843888 244450512#4 244450512#5"/>
    </vehicle>
    <vType id="Car26" length="5.00" vClass="passenger" color="green"/>
    <vehicle id="Flow26.0" type="Car26" depart="0.00" fromTaz="631668818" toTaz="631668923">
        <route edges="49695733#2"/>
    </vehicle>
    <vType id="Car27" length="5.00" vClass="passenger" color="green"/>
    <vehicle id="Flow27.0" type="Car27" depart="0.00" fromTaz="655375245" toTaz="cluster655375228_655375240">
        <route edges="51362431 594658762#0"/>
    </vehicle>
    <vType id="Car28" length="5.00" vClass="passenger" color="green"/>
    <vehicle id="Flow28.0" type="Car28" depart="0.00" fromTaz="3208478128" toTaz="3208478132">
        <route edges="314800955"/>
    </vehicle>
    <vType id="Car29" length="5.00" vClass="passenger" color="green"/>
    <vehicle id="Flow29.0" type="Car29" depart="0.00" fromTaz="cluster619136880_619136881_cluster_4510442270_5296993511_5296993513_619136931_#1more" toTaz="cluster619136899_619136900_cluster_619136929_619136942">
        <route edges="910567294"/>
    </vehicle>
    <vType id="Car3" length="5.00" vClass="passenger" color="green"/>
    <vehicle id="Flow3.0" type="Car3" depart="0.00" fromTaz="655375239" toTaz="655375241">
        <route edges="E1 1334905223#0"/>
    </vehicle>
    <vType id="Car30" length="5.00" vClass="passenger" color="green"/>
    <vehicle id="Flow30.0" type="Car30" depart="0.00" fromTaz="cluster655375336_end_0_655375336_end_1_655375336_end_10_655375336_end_11_#8more" toTaz="cluster_2528018119_655375236">
        <route edges="49695736#0"/>
    </vehicle>
    <vType id="Car4" length="5.00" vClass="passenger" color="green"/>
    <vehicle id="Flow4.0" type="Car4" depart="0.00" fromTaz="2081945236" toTaz="3139323041">
        <route edges="198001764#0 182336887#2"/>
    </vehicle>
    <vType id="Car5" length="5.00" vClass="passenger" color="green"/>
    <vehicle id="Flow5.0" type="Car5" depart="0.00" fromTaz="cluster_623980147_623980152" toTaz="3431431576">
        <route edges="288878926#0 593849711#0"/>
    </vehicle>
    <vType id="Car6" length="5.00" vClass="passenger" color="green"/>
    <vehicle id="Flow6.0" type="Car6" depart="0.00" fromTaz="2749340167" toTaz="1926948228">
        <route edges="-182336886 198001764#0 261898534"/>
    </vehicle>
    <vType id="Car7" length="5.00" vClass="passenger" color="green"/>
    <vehicle id="Flow7.0" type="Car7" depart="0.00" fromTaz="2444664370" toTaz="cluster_2664674491_655375287_655375288">
        <route edges="1068234499#0 182334378#0 232003903#0 51289045#1 51289045#3 51289045#4 260881641"/>
    </vehicle>
    <vType id="Car8" length="5.00" vClass="passenger" color="green"/>
    <vehicle id="Flow8.0" type="Car8" depart="0.00" fromTaz="3086736515" toTaz="cluster_623980147_623980152">
        <route edges="-49073264#1 49073274 593852345#0 196961215#2"/>
    </vehicle>
    <vType id="Car9" length="5.00" vClass="passenger" color="green"/>
    <vehicle id="Flow9.0" type="Car9" depart="0.00" fromTaz="3092676101" toTaz="2713733789">
        <route edges="268564473#0 288878927 196961378#1"/>
    </vehicle>
    <vehicle id="Flow16.1" type="Car16" depart="5.77" fromTaz="622618159" toTaz="619136999">
        <route edges="48794890 668037874 196961377#0"/>
    </vehicle>
    <vehicle id="Flow29.1" type="Car29" depart="5.77" fromTaz="cluster619136880_619136881_cluster_4510442270_5296993511_5296993513_619136931_#1more" toTaz="cluster619136899_619136900_cluster_619136929_619136942">
        <route edges="910567294"/>
    </vehicle>
    <vehicle id="Flow21.1" type="Car21" depart="6.82" fromTaz="cluster_5372642442_631668976_631668981_631669076" toTaz="2690921409">
        <route edges="506322851#0"/>
    </vehicle>
    <vehicle id="Flow11.1" type="Car11" depart="7.69" fromTaz="3091610527" toTaz="6252193077">
        <route edges="49073247#0 196961377#3 593849718#0"/>
    </vehicle>
    <vehicle id="Flow2.1" type="Car2" depart="7.69" fromTaz="3086736518" toTaz="1973482489">
        <route edges="593847705 593847703#0 300077497#0 35274074#0 506322846#0"/>
    </vehicle>
    <vehicle id="Flow13.1" type="Car13" depart="10.34" fromTaz="622618015" toTaz="622618015">
        <route edges="49073274 593852346 593849715 593849724"/>
    </vehicle>
    <vehicle id="Flow16.2" type="Car16" depart="11.54" fromTaz="622618159" toTaz="619136999">
        <route edges="48794890 668037874 196961377#0"/>
    </vehicle>
    <vehicle id="Flow29.2" type="Car29" depart="11.54" fromTaz="cluster619136880_619136881_cluster_4510442270_5296993511_5296993513_619136931_#1more" toTaz="cluster619136899_619136900_cluster_619136929_619136942">
        <route edges="910567294"/>
    </vehicle>
    <vehicle id="Flow12.1" type="Car12" depart="12.00" fromTaz="cluster_3208478133_655375293_655375296_9631728504_#1more" toTaz="2444664370">
        <route edges="593844221#0 49695736#0 300077497#0 35274074#0 506322846#0 506322846#2 288135626#0"/>
    </vehicle>
    <vehicle id="Flow21.2" type="Car21" depart="13.64" fromTaz="cluster_5372642442_631668976_631668981_631669076" toTaz="2690921409">
        <route edges="506322851#0"/>
    </vehicle>
    <vehicle id="Flow5.1" type="Car5" depart="13.64" fromTaz="cluster_623980147_623980152" toTaz="3431431576">
        <route edges="241518668#0 336063376#0"/>
    </vehicle>
    <vehicle id="Flow10.1" type="Car10" depart="15.00" fromTaz="cluster_9383263990_9383263991_9383263992_9383263993" toTaz="655375239">
        <route edges="506322844#0"/>
    </vehicle>
    <vehicle id="Flow11.2" type="Car11" depart="15.38" fromTaz="3091610527" toTaz="6252193077">
        <route edges="49073247#0 196961377#3 593849718#0"/>
    </vehicle>
    <vehicle id="Flow2.2" type="Car2" depart="15.38" fromTaz="3086736518" toTaz="1973482489">
        <route edges="593847705 593847703#0 300077497#0 35274074#0 506322846#0"/>
    </vehicle>
    <vehicle id="Flow7.1" type="Car7" depart="15.79" fromTaz="2444664370" toTaz="cluster_2664674491_655375287_655375288">
        <route edges="1068234499#0 182334378#0 1334904386#0 360843888"/>
    </vehicle>
    <vehicle id="Flow16.3" type="Car16" depart="17.31" fromTaz="622618159" toTaz="619136999">
        <route edges="48794890 668037874 196961377#0"/>
    </vehicle>
    <vehicle id="Flow29.3" type="Car29" depart="17.31" fromTaz="cluster619136880_619136881_cluster_4510442270_5296993511_5296993513_619136931_#1more" toTaz="cluster619136899_619136900_cluster_619136929_619136942">
        <route edges="910567294"/>
    </vehicle>
    <vehicle id="Flow0.1" type="Car0" depart="17.65" fromTaz="cluster_9383263990_9383263991_9383263992_9383263993" toTaz="cluster655375336_end_0_655375336_end_1_655375336_end_10_655375336_end_11_#8more">
        <route edges="506322844#0 263217604#0 594658760#0"/>
    </vehicle>
    <vehicle id="Flow26.1" type="Car26" depart="17.65" fromTaz="631668818" toTaz="631668923">
        <route edges="49695733#2"/>
    </vehicle>
    <vehicle id="Flow8.1" type="Car8" depart="18.75" fromTaz="3086736515" toTaz="cluster_623980147_623980152">
        <route edges="593852343 906806086#0 593852345#0 196961215#2"/>
    </vehicle>
    <vehicle id="Flow21.3" type="Car21" depart="20.45" fromTaz="cluster_5372642442_631668976_631668981_631669076" toTaz="2690921409">
        <route edges="506322851#0"/>
    </vehicle>
    <vehicle id="Flow13.2" type="Car13" depart="20.69" fromTaz="622618015" toTaz="622618015">
        <route edges="49073274 593852346 593849715 49073272#0 593847702#3 593849721"/>
    </vehicle>
    <vehicle id="Flow18.1" type="Car18" depart="21.43" fromTaz="1973482489" toTaz="2013717678">
        <route edges="506322846#2 288135628#0"/>
    </vehicle>
    <vehicle id="Flow11.3" type="Car11" depart="23.08" fromTaz="3091610527" toTaz="6252193077">
        <route edges="49073247#0 196961377#3 593849718#0"/>
    </vehicle>
    <vehicle id="Flow16.4" type="Car16" depart="23.08" fromTaz="622618159" toTaz="619136999">
        <route edges="48794890 668037874 196961377#0"/>
    </vehicle>
    <vehicle id="Flow2.3" type="Car2" depart="23.08" fromTaz="3086736518" toTaz="1973482489">
        <route edges="593847705 593847703#0 300077497#0 35274074#0 506322846#0"/>
    </vehicle>
    <vehicle id="Flow29.4" type="Car29" depart="23.08" fromTaz="cluster619136880_619136881_cluster_4510442270_5296993511_5296993513_619136931_#1more" toTaz="cluster619136899_619136900_cluster_619136929_619136942">
        <route edges="910567294"/>
    </vehicle>
    <vehicle id="Flow12.2" type="Car12" depart="24.00" fromTaz="cluster_3208478133_655375293_655375296_9631728504_#1more" toTaz="2444664370">
        <route edges="593844221#0 49695736#0 300077497#0 35274074#0 506322846#0 506322846#2 288135626#0"/>
    </vehicle>
    <vehicle id="Flow20.1" type="Car20" depart="25.00" fromTaz="cluster655375228_655375240" toTaz="cluster_9383263990_9383263991_9383263992_9383263993">
        <route edges="263217603#0"/>
    </vehicle>
    <vehicle id="Flow22.1" type="Car22" depart="25.00" fromTaz="631668923" toTaz="cluster_5372642442_631668976_631668981_631669076">
        <route edges="1068234498#0"/>
    </vehicle>
    <vehicle id="Flow21.4" type="Car21" depart="27.27" fromTaz="cluster_5372642442_631668976_631668981_631669076" toTaz="2690921409">
        <route edges="506322851#0"/>
    </vehicle>
    <vehicle id="Flow5.2" type="Car5" depart="27.27" fromTaz="cluster_623980147_623980152" toTaz="3431431576">
        <route edges="288878926#0 593849711#0"/>
    </vehicle>
    <vehicle id="Flow16.5" type="Car16" depart="28.85" fromTaz="622618159" toTaz="619136999">
        <route edges="48794890 668037874 196961377#0"/>
    </vehicle>
    <vehicle id="Flow29.5" type="Car29" depart="28.85" fromTaz="cluster619136880_619136881_cluster_4510442270_5296993511_5296993513_619136931_#1more" toTaz="cluster619136899_619136900_cluster_619136929_619136942">
        <route edges="910567294"/>
    </vehicle>
    <vehicle id="Flow10.2" type="Car10" depart="30.00" fromTaz="cluster_9383263990_9383263991_9383263992_9383263993" toTaz="655375239">
        <route edges="506322844#0"/>
    </vehicle>
    <vehicle id="Flow11.4" type="Car11" depart="30.77" fromTaz="3091610527" toTaz="6252193077">
        <route edges="49073247#0 196961377#3 593849718#0"/>
    </vehicle>
    <vehicle id="Flow2.4" type="Car2" depart="30.77" fromTaz="3086736518" toTaz="1973482489">
        <route edges="593847705 593847703#0 300077497#0 35274074#0 506322846#0"/>
    </vehicle>
    <vehicle id="Flow13.3" type="Car13" depart="31.03" fromTaz="622618015" toTaz="622618015">
        <route edges="49073274 593852346 593849715 593849724"/>
    </vehicle>
    <vehicle id="Flow7.2" type="Car7" depart="31.58" fromTaz="2444664370" toTaz="cluster_2664674491_655375287_655375288">
        <route edges="1068234499#0 182334378#0 232003903#0 51289045#1 51289045#3 51289045#4 260881641"/>
    </vehicle>
    <vehicle id="Flow1.1" type="Car1" depart="33.33" fromTaz="cluster_2038168688_655375573" toTaz="3196998953">
        <route edges="506322848#0 506322844#0 263217604#0 303647015#0"/>
    </vehicle>
    <vehicle id="Flow21.5" type="Car21" depart="34.09" fromTaz="cluster_5372642442_631668976_631668981_631669076" toTaz="2690921409">
        <route edges="506322851#0"/>
    </vehicle>
    <vehicle id="Flow16.6" type="Car16" depart="34.61" fromTaz="622618159" toTaz="619136999">
        <route edges="48794890 668037874 196961377#0"/>
    </vehicle>
    <vehicle id="Flow29.6" type="Car29" depart="34.61" fromTaz="cluster619136880_619136881_cluster_4510442270_5296993511_5296993513_619136931_#1more" toTaz="cluster619136899_619136900_cluster_619136929_619136942">
        <route edges="910567294"/>
    </vehicle>
    <vehicle id="Flow0.2" type="Car0" depart="35.29" fromTaz="cluster_9383263990_9383263991_9383263992_9383263993" toTaz="cluster655375336_end_0_655375336_end_1_655375336_end_10_655375336_end_11_#8more">
        <route edges="506322842#0 506322846#0 506322846#2 288135626#0 1068234499#0 182334378#0"/>
    </vehicle>
    <vehicle id="Flow26.2" type="Car26" depart="35.29" fromTaz="631668818" toTaz="631668923">
        <route edges="49695733#2"/>
    </vehicle>
    <vehicle id="Flow12.3" type="Car12" depart="36.00" fromTaz="cluster_3208478133_655375293_655375296_9631728504_#1more" toTaz="2444664370">
        <route edges="593844221#0 49695736#0 300077497#0 35274074#0 506322846#0 506322846#2 288135626#0"/>
    </vehicle>
    <vehicle id="Flow8.2" type="Car8" depart="37.50" fromTaz="3086736515" toTaz="cluster_623980147_623980152">
        <route edges="-49073264#1 -593849724 -593847704#2 -593847701 -51362429#1 49073226#2"/>
    </vehicle>
    <vehicle id="Flow11.5" type="Car11" depart="38.46" fromTaz="3091610527" toTaz="6252193077">
        <route edges="49073247#0 196961377#3 593849718#0"/>
    </vehicle>
    <vehicle id="Flow2.5" type="Car2" depart="38.46" fromTaz="3086736518" toTaz="1973482489">
        <route edges="593847705 593847703#0 300077497#0 35274074#0 506322846#0"/>
    </vehicle>
    <vehicle id="Flow16.7" type="Car16" depart="40.38" fromTaz="622618159" toTaz="619136999">
        <route edges="48794890 668037874 196961377#0"/>
    </vehicle>
    <vehicle id="Flow29.7" type="Car29" depart="40.38" fromTaz="cluster619136880_619136881_cluster_4510442270_5296993511_5296993513_619136931_#1more" toTaz="cluster619136899_619136900_cluster_619136929_619136942">
        <route edges="910567294"/>
    </vehicle>
    <vehicle id="Flow21.6" type="Car21" depart="40.91" fromTaz="cluster_5372642442_631668976_631668981_631669076" toTaz="2690921409">
        <route edges="506322851#0"/>
    </vehicle>
    <vehicle id="Flow5.3" type="Car5" depart="40.91" fromTaz="cluster_623980147_623980152" toTaz="3431431576">
        <route edges="241518668#0 336063376#0"/>
    </vehicle>
    <vehicle id="Flow13.4" type="Car13" depart="41.38" fromTaz="622618015" toTaz="622618015">
        <route edges="49073274 593852346 593849715 593849724"/>
    </vehicle>
    <vehicle id="Flow18.2" type="Car18" depart="42.86" fromTaz="1973482489" toTaz="2013717678">
        <route edges="506322846#2 288135628#0"/>
    </vehicle>
    <vehicle id="Flow25.1" type="Car25" depart="42.86" fromTaz="cluster3086736522_655375108_655375247_655375401_#1more" toTaz="cluster_3208478133_655375293_655375296_9631728504_#1more">
        <route edges="360843888 244450512#4 244450512#5"/>
    </vehicle>
    <vehicle id="Flow10.3" type="Car10" depart="45.00" fromTaz="cluster_9383263990_9383263991_9383263992_9383263993" toTaz="655375239">
        <route edges="506322844#0"/>
    </vehicle>
    <vehicle id="Flow11.6" type="Car11" depart="46.15" fromTaz="3091610527" toTaz="6252193077">
        <route edges="49073247#0 196961377#3 593849718#0"/>
    </vehicle>
    <vehicle id="Flow16.8" type="Car16" depart="46.15" fromTaz="622618159" toTaz="619136999">
        <route edges="48794890 668037874 196961377#0"/>
    </vehicle>
    <vehicle id="Flow2.6" type="Car2" depart="46.15" fromTaz="3086736518" toTaz="1973482489">
        <route edges="593847705 593847703#0 300077497#0 35274074#0 506322846#0"/>
    </vehicle>
    <vehicle id="Flow29.8" type="Car29" depart="46.15" fromTaz="cluster619136880_619136881_cluster_4510442270_5296993511_5296993513_619136931_#1more" toTaz="cluster619136899_619136900_cluster_619136929_619136942">
        <route edges="910567294"/>
    </vehicle>
    <vehicle id="Flow7.3" type="Car7" depart="47.37" fromTaz="2444664370" toTaz="cluster_2664674491_655375287_655375288">
        <route edges="1068234499#0 182334378#0 232003903#0 51289045#1 51289045#3 51289045#4 260881641"/>
    </vehicle>
    <vehicle id="Flow21.7" type="Car21" depart="47.73" fromTaz="cluster_5372642442_631668976_631668981_631669076" toTaz="2690921409">
        <route edges="506322851#0"/>
    </vehicle>
    <vehicle id="Flow12.4" type="Car12" depart="48.00" fromTaz="cluster_3208478133_655375293_655375296_9631728504_#1more" toTaz="2444664370">
        <route edges="593844221#0 49695736#0 300077497#0 35274074#0 506322846#0 506322846#2 288135626#0"/>
    </vehicle>
    <vehicle id="Flow17.1" type="Car17" depart="50.00" fromTaz="cluster_3431431575_4777363357_655375231_6982059025" toTaz="3086736518">
        <route edges="51362429#0 593847701"/>
    </vehicle>
    <vehicle id="Flow20.2" type="Car20" depart="50.00" fromTaz="cluster655375228_655375240" toTaz="cluster_9383263990_9383263991_9383263992_9383263993">
        <route edges="263217603#0"/>
    </vehicle>
    <vehicle id="Flow22.2" type="Car22" depart="50.00" fromTaz="631668923" toTaz="cluster_5372642442_631668976_631668981_631669076">
        <route edges="1068234498#0"/>
    </vehicle>
    <vehicle id="Flow3.1" type="Car3" depart="50.00" fromTaz="655375239" toTaz="655375241">
        <route edges="E1 1334905223#0"/>
    </vehicle>
    <vehicle id="Flow6.1" type="Car6" depart="50.00" fromTaz="2749340167" toTaz="1926948228">
        <route edges="-182336886 198001764#0 261898534"/>
    </vehicle>
    <vehicle id="Flow13.5" type="Car13" depart="51.72" fromTaz="622618015" toTaz="622618015">
        <route edges="49073274 593852346 593849715 593849724"/>
    </vehicle>
    <vehicle id="Flow16.9" type="Car16" depart="51.92" fromTaz="622618159" toTaz="619136999">
        <route edges="48794890 668037874 196961377#0"/>
    </vehicle>
    <vehicle id="Flow29.9" type="Car29" depart="51.92" fromTaz="cluster619136880_619136881_cluster_4510442270_5296993511_5296993513_619136931_#1more" toTaz="cluster619136899_619136900_cluster_619136929_619136942">
        <route edges="910567294"/>
    </vehicle>
    <vehicle id="Flow0.3" type="Car0" depart="52.94" fromTaz="cluster_9383263990_9383263991_9383263992_9383263993" toTaz="cluster655375336_end_0_655375336_end_1_655375336_end_10_655375336_end_11_#8more">
        <route edges="506322844#0 -300077497#8 -300077497#5 182334378#0"/>
    </vehicle>
    <vehicle id="Flow26.3" type="Car26" depart="52.94" fromTaz="631668818" toTaz="631668923">
        <route edges="49695733#2"/>
    </vehicle>
    <vehicle id="Flow11.7" type="Car11" depart="53.84" fromTaz="3091610527" toTaz="6252193077">
        <route edges="49073247#0 196961377#3 593849718#0"/>
    </vehicle>
    <vehicle id="Flow2.7" type="Car2" depart="53.84" fromTaz="3086736518" toTaz="1973482489">
        <route edges="593847705 593847703#0 300077497#0 35274074#0 506322846#0"/>
    </vehicle>
    <vehicle id="Flow21.8" type="Car21" depart="54.54" fromTaz="cluster_5372642442_631668976_631668981_631669076" toTaz="2690921409">
        <route edges="506322851#0"/>
    </vehicle>
    <vehicle id="Flow5.4" type="Car5" depart="54.54" fromTaz="cluster_623980147_623980152" toTaz="3431431576">
        <route edges="241518668#0 336063376#0"/>
    </vehicle>
    <vehicle id="Flow8.3" type="Car8" depart="56.25" fromTaz="3086736515" toTaz="cluster_623980147_623980152">
        <route edges="-49073264#1 49073274 593852345#0 196961215#2"/>
    </vehicle>
    <vehicle id="Flow16.10" type="Car16" depart="57.69" fromTaz="622618159" toTaz="619136999">
        <route edges="48794890 668037874 196961377#0"/>
    </vehicle>
    <vehicle id="Flow29.10" type="Car29" depart="57.69" fromTaz="cluster619136880_619136881_cluster_4510442270_5296993511_5296993513_619136931_#1more" toTaz="cluster619136899_619136900_cluster_619136929_619136942">
        <route edges="910567294"/>
    </vehicle>
    <vehicle id="Flow10.4" type="Car10" depart="60.00" fromTaz="cluster_9383263990_9383263991_9383263992_9383263993" toTaz="655375239">
        <route edges="506322844#0"/>
    </vehicle>
    <vehicle id="Flow12.5" type="Car12" depart="60.00" fromTaz="cluster_3208478133_655375293_655375296_9631728504_#1more" toTaz="2444664370">
        <route edges="593844221#0 1068440004#1 593847702#0 49073272#1 49073272#3 49073272#4 353392316#0 288135626#0"/>
    </vehicle>
    <vehicle id="Flow23.1" type="Car23" depart="60.00" fromTaz="7782558678" toTaz="7782558675">
        <route edges="196961215#0 196961215#2 288878926#0 593849715 593849724 49073274 593852345#0 196961379#0"/>
    </vehicle>
    <vehicle id="Flow30.1" type="Car30" depart="60.00" fromTaz="cluster655375336_end_0_655375336_end_1_655375336_end_10_655375336_end_11_#8more" toTaz="cluster_2528018119_655375236">
        <route edges="49695736#0"/>
    </vehicle>
    <vehicle id="Flow9.1" type="Car9" depart="60.00" fromTaz="3092676101" toTaz="2713733789">
        <route edges="268564473#0 288878927 196961378#1"/>
    </vehicle>
    <vehicle id="Flow21.9" type="Car21" depart="61.36" fromTaz="cluster_5372642442_631668976_631668981_631669076" toTaz="2690921409">
        <route edges="506322851#0"/>
    </vehicle>
    <vehicle id="Flow11.8" type="Car11" depart="61.54" fromTaz="3091610527" toTaz="6252193077">
        <route edges="49073247#0 196961377#3 593849718#0"/>
    </vehicle>
    <vehicle id="Flow2.8" type="Car2" depart="61.54" fromTaz="3086736518" toTaz="1973482489">
        <route edges="593847705 593847703#0 300077497#0 35274074#0 506322846#0"/>
    </vehicle>
    <vehicle id="Flow13.6" type="Car13" depart="62.06" fromTaz="622618015" toTaz="622618015">
        <route edges="-593849724 49073272#0 593847702#3 593849721"/>
    </vehicle>
    <vehicle id="Flow7.4" type="Car7" depart="63.16" fromTaz="2444664370" toTaz="cluster_2664674491_655375287_655375288">
        <route edges="1068234499#0 182334378#0 232003903#0 51289045#1 51289045#3 51289045#4 260881641"/>
    </vehicle>
    <vehicle id="Flow16.11" type="Car16" depart="63.46" fromTaz="622618159" toTaz="619136999">
        <route edges="48794890 668037874 196961377#0"/>
    </vehicle>
    <vehicle id="Flow29.11" type="Car29" depart="63.46" fromTaz="cluster619136880_619136881_cluster_4510442270_5296993511_5296993513_619136931_#1more" toTaz="cluster619136899_619136900_cluster_619136929_619136942">
        <route edges="910567294"/>
    </vehicle>
    <vehicle id="Flow18.3" type="Car18" depart="64.28" fromTaz="1973482489" toTaz="2013717678">
        <route edges="506322846#2 288135628#0"/>
    </vehicle>
    <vehicle id="Flow1.2" type="Car1" depart="66.67" fromTaz="cluster_2038168688_655375573" toTaz="3196998953">
        <route edges="-35274074#2 300077497#6 263217604#0 303647015#0"/>
    </vehicle>
    <vehicle id="Flow21.10" type="Car21" depart="68.18" fromTaz="cluster_5372642442_631668976_631668981_631669076" toTaz="2690921409">
        <route edges="506322851#0"/>
    </vehicle>
    <vehicle id="Flow5.5" type="Car5" depart="68.18" fromTaz="cluster_623980147_623980152" toTaz="3431431576">
        <route edges="241518668#0 336063376#0"/>
    </vehicle>
    <vehicle id="Flow11.9" type="Car11" depart="69.23" fromTaz="3091610527" toTaz="6252193077">
        <route edges="49073247#0 196961377#3 593849718#0"/>
    </vehicle>
    <vehicle id="Flow16.12" type="Car16" depart="69.23" fromTaz="622618159" toTaz="619136999">
        <route edges="48794890 668037874 196961377#0"/>
    </vehicle>
    <vehicle id="Flow2.9" type="Car2" depart="69.23" fromTaz="3086736518" toTaz="1973482489">
        <route edges="593847705 593847703#0 300077497#0 35274074#0 506322846#0"/>
    </vehicle>
    <vehicle id="Flow29.12" type="Car29" depart="69.23" fromTaz="cluster619136880_619136881_cluster_4510442270_5296993511_5296993513_619136931_#1more" toTaz="cluster619136899_619136900_cluster_619136929_619136942">
        <route edges="910567294"/>
    </vehicle>
    <vehicle id="Flow0.4" type="Car0" depart="70.59" fromTaz="cluster_9383263990_9383263991_9383263992_9383263993" toTaz="cluster655375336_end_0_655375336_end_1_655375336_end_10_655375336_end_11_#8more">
        <route edges="506322844#0 263217604#0 594658760#0"/>
    </vehicle>
    <vehicle id="Flow26.4" type="Car26" depart="70.59" fromTaz="631668818" toTaz="631668923">
        <route edges="49695733#2"/>
    </vehicle>
    <vehicle id="Flow12.6" type="Car12" depart="72.00" fromTaz="cluster_3208478133_655375293_655375296_9631728504_#1more" toTaz="2444664370">