<?xml version="1.0" encoding="UTF-8"?>

<!-- generated on 2026-02-18 21:07:18 by Eclipse SUMO duarouter Version 1.24.0
<duarouterConfiguration xmlns:xsi="http://www.w3.org/2001/XMLSchema-instance" xsi:noNamespaceSchemaLocation="http://sumo.dlr.de/xsd/duarouterConfiguration.xsd">

    <input>
        <net-file value="./data/ntut_network_split.net copy.xml"/>
        <route-files value="./data/final_output.rou.alt.xml"/>
        <junction-taz value="true"/>
    </input>

    <output>
        <output-file value="./data/final_output.rou.xml"/>
        <alternatives-output value="./data/final_output.rou.alt.xml.tmp"/>
    </output>

    <processing>
        <max-alternatives value="3"/>
        <weights.random-factor value="12"/>
    </processing>

    <report>
        <ignore-errors value="true"/>
    </report>

</duarouterConfiguration>
-->

<routes xmlns:xsi="http://www.w3.org/2001/XMLSchema-instance" xsi:noNamespaceSchemaLocation="http://sumo.dlr.de/xsd/routes_file.xsd">
    <vType id="Car0" length="5.00" vClass="passenger" color="green"/>
    <vehicle id="Flow0.0" type="Car0" depart="0.00" fromTaz="cluster_9383263990_9383263991_9383263992_9383263993" toTaz="cluster655375336_end_0_655375336_end_1_655375336_end_10_655375336_end_11_#8more">
        <route edges="506322844#0 -300077497#8 -300077497#5 182334378#0"/>
    </vehicle>
    <vType id="Car1" length="5.00" vClass="passenger" color="green"/>
    <vehicle id="Flow1.0" type="Car1" depart="0.00" fromTaz="cluster_2038168688_655375573" toTaz="3196998953">
        <route edges="-35274074#2 -300077497#5 182334378#0 -594658757#2 303647015#0"/>
    </vehicle>
    <vType id="Car10" length="5.00" vClass="passenger" color="green"/>
    <vehicle id="Flow10.0" type="Car10" depart="0.00" fromTaz="3092676101" toTaz="2713733789">
        <route edges="268564473#0 288878927 196961378#1"/>
    </vehicle>
    <vType id="Car11" length="5.00" vClass="passenger" color="green"/>
    <vehicle id="Flow11.0" type="Car11" depart="0.00" fromTaz="cluster_9383263990_9383263991_9383263992_9383263993" toTaz="655375239">
        <route edges="506322844#0"/>
    </vehicle>
    <vType id="Car12" length="5.00" vClass="passenger" color="green"/>
    <vehicle id="Flow12.0" type="Car12" depart="0.00" fromTaz="3091610527" toTaz="6252193077">
        <route edges="49073247#0 196961377#3 593849718#0"/>
    </vehicle>
    <vType id="Car13" length="5.00" vClass="passenger" color="green"/>
    <vehicle id="Flow13.0" type="Car13" depart="0.00" fromTaz="cluster_3208478133_655375293_655375296_9631728504_#1more" toTaz="2444664370">
        <route edges="593844221#0 1068440004#1 -593847705 593847704#0 49073272#0 49073272#1 49073272#3 49073272#4 353392316#0 288135626#0"/>
    </vehicle>
    <vType id="Car14" length="5.00" vClass="passenger" color="green"/>
    <vehicle id="Flow14.0" type="Car14" depart="0.00" fromTaz="622618015" toTaz="622618015">
        <route edges="-593849724 49073272#0 593847702#3 593849721"/>
    </vehicle>
    <vType id="Car15" length="5.00" vClass="passenger" color="green"/>
    <vehicle id="Flow15.0" type="Car15" depart="0.00" fromTaz="656132499" toTaz="656132498">
        <route edges="51392936#0"/>
    </vehicle>
    <vType id="Car16" length="5.00" vClass="passenger" color="green"/>
    <vehicle id="Flow16.0" type="Car16" depart="0.00" fromTaz="655375286" toTaz="2664674489">
        <route edges="244450512#0 244450512#1 260881642#0"/>
    </vehicle>
    <vType id="Car17" length="5.00" vClass="passenger" color="green"/>
    <vehicle id="Flow17.0" type="Car17" depart="0.00" fromTaz="3139322031" toTaz="7199509892">
        <route edges="506322841#4"/>
    </vehicle>
    <vType id="Car18" length="5.00" vClass="passenger" color="green"/>
    <vehicle id="Flow18.0" type="Car18" depart="0.00" fromTaz="cluster_2528018119_655375236" toTaz="cluster_2038168688_655375573">
        <route edges="300077497#0 35274074#0"/>
    </vehicle>
    <vType id="Car19" length="5.00" vClass="passenger" color="green"/>
    <vehicle id="Flow19.0" type="Car19" depart="0.00" fromTaz="622618159" toTaz="619136999">
        <route edges="48794890 668037874 196961377#0"/>
    </vehicle>
    <vType id="Car2" length="5.00" vClass="passenger" color="green"/>
    <vehicle id="Flow2.0" type="Car2" depart="0.00" fromTaz="3086736518" toTaz="1973482489">
        <route edges="593847705 593847703#0 300077497#0 35274074#0 506322846#0"/>
    </vehicle>
    <vType id="Car20" length="5.00" vClass="passenger" color="green"/>
    <vehicle id="Flow20.0" type="Car20" depart="0.00" fromTaz="cluster_3431431575_4777363357_655375231_6982059025" toTaz="3086736518">
        <route edges="51362429#0 593847701"/>
    </vehicle>
    <vType id="Car21" length="5.00" vClass="passenger" color="green"/>
    <vehicle id="Flow21.0" type="Car21" depart="0.00" fromTaz="1973482489" toTaz="2013717678">
        <route edges="506322846#2 288135628#0"/>
    </vehicle>
    <vType id="Car22" length="5.00" vClass="passenger" color="green"/>
    <vehicle id="Flow22.0" type="Car22" depart="0.00" fromTaz="619137000" toTaz="655374967">
        <route edges="51362359#0"/>
    </vehicle>
    <vType id="Car23" length="5.00" vClass="passenger" color="green"/>
    <vehicle id="Flow23.0" type="Car23" depart="0.00" fromTaz="cluster655375228_655375240" toTaz="cluster_9383263990_9383263991_9383263992_9383263993">
        <route edges="263217603#0"/>
    </vehicle>
    <vType id="Car24" length="5.00" vClass="passenger" color="green"/>
    <vehicle id="Flow24.0" type="Car24" depart="0.00" fromTaz="cluster_5372642442_631668976_631668981_631669076" toTaz="2690921409">
        <route edges="506322851#0"/>
    </vehicle>
    <vType id="Car25" length="5.00" vClass="passenger" color="green"/>
    <vehicle id="Flow25.0" type="Car25" depart="0.00" fromTaz="631668923" toTaz="cluster_5372642442_631668976_631668981_631669076">
        <route edges="1068234498#0"/>
    </vehicle>
    <vType id="Car26" length="5.00" vClass="passenger" color="green"/>
    <vehicle id="Flow26.0" type="Car26" depart="0.00" fromTaz="7782558678" toTaz="7782558675">
        <route edges="196961215#0 196961215#2 288878926#0 593849715 49073272#0 593847702#3 593849721 49073274 593852345#0 196961379#0"/>
    </vehicle>
    <vType id="Car27" length="5.00" vClass="passenger" color="green"/>
    <vehicle id="Flow27.0" type="Car27" depart="0.00" fromTaz="cluster619136880_619136881_cluster_4510442270_5296993511_5296993513_619136931_#1more" toTaz="622618165">
        <route edges="48794887#0"/>
    </vehicle>
    <vType id="Car28" length="5.00" vClass="passenger" color="green"/>
    <vehicle id="Flow28.0" type="Car28" depart="0.00" fromTaz="cluster3086736522_655375108_655375247_655375401_#1more" toTaz="cluster_3208478133_655375293_655375296_9631728504_#1more">
        <route edges="360843888 244450512#4 244450512#5"/>
    </vehicle>
    <vType id="Car29" length="5.00" vClass="passenger" color="green"/>
    <vehicle id="Flow29.0" type="Car29" depart="0.00" fromTaz="631668818" toTaz="631668923">
        <route edges="49695733#2"/>
    </vehicle>
    <vType id="Car3" length="5.00" vClass="passenger" color="green"/>
    <vehicle id="Flow3.0" type="Car3" depart="0.00" fromTaz="2664674480" toTaz="6251747844">
        <route edges="51289045#5"/>
    </vehicle>
    <vType id="Car30" length="5.00" vClass="passenger" color="green"/>
    <vehicle id="Flow30.0" type="Car30" depart="0.00" fromTaz="655375245" toTaz="cluster655375228_655375240">
        <route edges="51362431 594658762#0"/>
    </vehicle>
    <vType id="Car31" length="5.00" vClass="passenger" color="green"/>
    <vehicle id="Flow31.0" type="Car31" depart="0.00" fromTaz="1973482489" toTaz="1973482489">
        <route edges="186602412#0 -186602412#3"/>
    </vehicle>
    <vType id="Car32" length="5.00" vClass="passenger" color="green"/>
    <vehicle id="Flow32.0" type="Car32" depart="0.00" fromTaz="3208478128" toTaz="3208478132">
        <route edges="314800955"/>
    </vehicle>
    <vType id="Car33" length="5.00" vClass="passenger" color="green"/>
    <vehicle id="Flow33.0" type="Car33" depart="0.00" fromTaz="cluster619136880_619136881_cluster_4510442270_5296993511_5296993513_619136931_#1more" toTaz="cluster619136899_619136900_cluster_619136929_619136942">
        <route edges="910567294"/>
    </vehicle>
    <vType id="Car34" length="5.00" vClass="passenger" color="green"/>
    <vehicle id="Flow34.0" type="Car34" depart="0.00" fromTaz="cluster655375336_end_0_655375336_end_1_655375336_end_10_655375336_end_11_#8more" toTaz="cluster_2528018119_655375236">
        <route edges="49695736#0"/>
    </vehicle>
    <vType id="Car4" length="5.00" vClass="passenger" color="green"/>
    <vehicle id="Flow4.0" type="Car4" depart="0.00" fromTaz="655375239" toTaz="655375241">
        <route edges="E1 1334905223#0"/>
    </vehicle>
    <vType id="Car5" length="5.00" vClass="passenger" color="green"/>
    <vehicle id="Flow5.0" type="Car5" depart="0.00" fromTaz="2081945236" toTaz="3139323041">
        <route edges="198001764#0 182336887#2"/>
    </vehicle>
    <vType id="Car6" length="5.00" vClass="passenger" color="green"/>
    <vehicle id="Flow6.0" type="Car6" depart="0.00" fromTaz="cluster_623980147_623980152" toTaz="3431431576">
        <route edges="288878926#0 593849711#0"/>
    </vehicle>
    <vType id="Car7" length="5.00" vClass="passenger" color="green"/>
    <vehicle id="Flow7.0" type="Car7" depart="0.00" fromTaz="2749340167" toTaz="1926948228">
        <route edges="-182336886 198001764#0 261898534"/>
    </vehicle>
    <vType id="Car8" length="5.00" vClass="passenger" color="green"/>
    <vehicle id="Flow8.0" type="Car8" depart="0.00" fromTaz="2444664370" toTaz="cluster_2664674491_655375287_655375288">
        <route edges="1068234499#0 182334378#0 1334904386#0 360843888"/>
    </vehicle>
    <vType id="Car9" length="5.00" vClass="passenger" color="green"/>
    <vehicle id="Flow9.0" type="Car9" depart="0.00" fromTaz="3086736515" toTaz="cluster_623980147_623980152">
        <route edges="-49073264#1 49073274 593852345#0 196961215#2"/>
    </vehicle>
    <vehicle id="Flow19.1" type="Car19" depart="1.71" fromTaz="622618159" toTaz="619136999">
        <route edges="48794890 668037874 196961377#0"/>
    </vehicle>
    <vehicle id="Flow33.1" type="Car33" depart="1.71" fromTaz="cluster619136880_619136881_cluster_4510442270_5296993511_5296993513_619136931_#1more" toTaz="cluster619136899_619136900_cluster_619136929_619136942">
        <route edges="910567294"/>
    </vehicle>
    <vehicle id="Flow24.1" type="Car24" depart="1.75" fromTaz="cluster_5372642442_631668976_631668981_631669076" toTaz="2690921409">
        <route edges="506322851#0"/>
    </vehicle>
    <vehicle id="Flow0.1" type="Car0" depart="1.83" fromTaz="cluster_9383263990_9383263991_9383263992_9383263993" toTaz="cluster655375336_end_0_655375336_end_1_655375336_end_10_655375336_end_11_#8more">
        <route edges="506322844#0 -300077497#8 -300077497#5 182334378#0"/>
    </vehicle>
    <vehicle id="Flow12.1" type="Car12" depart="2.29" fromTaz="3091610527" toTaz="6252193077">
        <route edges="49073247#0 196961377#3 593849718#0"/>
    </vehicle>
    <vehicle id="Flow2.1" type="Car2" depart="2.29" fromTaz="3086736518" toTaz="1973482489">
        <route edges="593847705 593847703#0 300077497#0 35274074#0 506322846#0"/>
    </vehicle>
    <vehicle id="Flow23.1" type="Car23" depart="2.44" fromTaz="cluster655375228_655375240" toTaz="cluster_9383263990_9383263991_9383263992_9383263993">
        <route edges="263217603#0"/>
    </vehicle>
    <vehicle id="Flow13.1" type="Car13" depart="3.03" fromTaz="cluster_3208478133_655375293_655375296_9631728504_#1more" toTaz="2444664370">
        <route edges="593844221#0 49695736#0 300077497#0 35274074#0 506322846#0 506322846#2 288135626#0"/>
    </vehicle>
    <vehicle id="Flow6.1" type="Car6" depart="3.03" fromTaz="cluster_623980147_623980152" toTaz="3431431576">
        <route edges="241518668#0 336063376#0"/>
    </vehicle>
    <vehicle id="Flow14.1" type="Car14" depart="3.06" fromTaz="622618015" toTaz="622618015">
        <route edges="-593849724 49073272#0 593847702#3 593849721"/>
    </vehicle>
    <vehicle id="Flow11.1" type="Car11" depart="3.33" fromTaz="cluster_9383263990_9383263991_9383263992_9383263993" toTaz="655375239">
        <route edges="506322844#0"/>
    </vehicle>
    <vehicle id="Flow19.2" type="Car19" depart="3.43" fromTaz="622618159" toTaz="619136999">
        <route edges="48794890 668037874 196961377#0"/>
    </vehicle>
    <vehicle id="Flow33.2" type="Car33" depart="3.43" fromTaz="cluster619136880_619136881_cluster_4510442270_5296993511_5296993513_619136931_#1more" toTaz="cluster619136899_619136900_cluster_619136929_619136942">
        <route edges="910567294"/>
    </vehicle>
    <vehicle id="Flow24.2" type="Car24" depart="3.51" fromTaz="cluster_5372642442_631668976_631668981_631669076" toTaz="2690921409">
        <route edges="506322851#0"/>
    </vehicle>
    <vehicle id="Flow0.2" type="Car0" depart="3.66" fromTaz="cluster_9383263990_9383263991_9383263992_9383263993" toTaz="cluster655375336_end_0_655375336_end_1_655375336_end_10_655375336_end_11_#8more">
        <route edges="506322844#0 -300077497#8 -300077497#5 182334378#0"/>
    </vehicle>
    <vehicle id="Flow20.1" type="Car20" depart="3.66" fromTaz="cluster_3431431575_4777363357_655375231_6982059025" toTaz="3086736518">
        <route edges="51362429#0 593847701"/>
    </vehicle>
    <vehicle id="Flow8.1" type="Car8" depart="3.66" fromTaz="2444664370" toTaz="cluster_2664674491_655375287_655375288">
        <route edges="1068234499#0 182334378#0 1334904386#0 360843888"/>
    </vehicle>
    <vehicle id="Flow9.1" type="Car9" depart="3.75" fromTaz="3086736515" toTaz="cluster_623980147_623980152">
        <route edges="593852343 906806086#0 593852345#0 196961215#2"/>
    </vehicle>
    <vehicle id="Flow1.1" type="Car1" depart="3.85" fromTaz="cluster_2038168688_655375573" toTaz="3196998953">
        <route edges="-35274074#2 -300077497#5 182334378#0 -594658757#2 303647015#0"/>
    </vehicle>
    <vehicle id="Flow12.2" type="Car12" depart="4.58" fromTaz="3091610527" toTaz="6252193077">
        <route edges="49073247#0 196961377#3 593849718#0"/>
    </vehicle>
    <vehicle id="Flow2.2" type="Car2" depart="4.58" fromTaz="3086736518" toTaz="1973482489">
        <route edges="593847705 593847703#0 300077497#0 35274074#0 506322846#0"/>
    </vehicle>
    <vehicle id="Flow23.2" type="Car23" depart="4.88" fromTaz="cluster655375228_655375240" toTaz="cluster_9383263990_9383263991_9383263992_9383263993">
        <route edges="263217603#0"/>
    </vehicle>
    <vehicle id="Flow19.3" type="Car19" depart="5.14" fromTaz="622618159" toTaz="619136999">
        <route edges="48794890 668037874 196961377#0"/>
    </vehicle>
    <vehicle id="Flow33.3" type="Car33" depart="5.14" fromTaz="cluster619136880_619136881_cluster_4510442270_5296993511_5296993513_619136931_#1more" toTaz="cluster619136899_619136900_cluster_619136929_619136942">
        <route edges="910567294"/>
    </vehicle>
    <vehicle id="Flow7.1" type="Car7" depart="5.17" fromTaz="2749340167" toTaz="1926948228">
        <route edges="-182336886 198001764#0 261898534"/>
    </vehicle>
    <vehicle id="Flow24.3" type="Car24" depart="5.26" fromTaz="cluster_5372642442_631668976_631668981_631669076" toTaz="2690921409">
        <route edges="506322851#0"/>
    </vehicle>
    <vehicle id="Flow0.3" type="Car0" depart="5.49" fromTaz="cluster_9383263990_9383263991_9383263992_9383263993" toTaz="cluster655375336_end_0_655375336_end_1_655375336_end_10_655375336_end_11_#8more">
        <route edges="506322844#0 263217604#0 594658760#0"/>
    </vehicle>
    <vehicle id="Flow4.1" type="Car4" depart="5.56" fromTaz="655375239" toTaz="655375241">
        <route edges="E1 1334905223#0"/>
    </vehicle>
    <vehicle id="Flow21.1" type="Car21" depart="5.66" fromTaz="1973482489" toTaz="2013717678">
        <route edges="506322846#2 288135628#0"/>
    </vehicle>
    <vehicle id="Flow13.2" type="Car13" depart="6.06" fromTaz="cluster_3208478133_655375293_655375296_9631728504_#1more" toTaz="2444664370">
        <route edges="593844221#0 49695736#0 300077497#0 35274074#0 506322846#0 506322846#2 288135626#0"/>
    </vehicle>
    <vehicle id="Flow6.2" type="Car6" depart="6.06" fromTaz="cluster_623980147_623980152" toTaz="3431431576">
        <route edges="288878926#0 593849711#0"/>
    </vehicle>
    <vehicle id="Flow14.2" type="Car14" depart="6.12" fromTaz="622618015" toTaz="622618015">
        <route edges="-593849724 49073272#0 593847702#3 593849721"/>
    </vehicle>
    <vehicle id="Flow11.2" type="Car11" depart="6.67" fromTaz="cluster_9383263990_9383263991_9383263992_9383263993" toTaz="655375239">
        <route edges="506322844#0"/>
    </vehicle>
    <vehicle id="Flow19.4" type="Car19" depart="6.86" fromTaz="622618159" toTaz="619136999">
        <route edges="48794890 668037874 196961377#0"/>
    </vehicle>
    <vehicle id="Flow33.4" type="Car33" depart="6.86" fromTaz="cluster619136880_619136881_cluster_4510442270_5296993511_5296993513_619136931_#1more" toTaz="cluster619136899_619136900_cluster_619136929_619136942">
        <route edges="910567294"/>
    </vehicle>
    <vehicle id="Flow12.3" type="Car12" depart="6.87" fromTaz="3091610527" toTaz="6252193077">
        <route edges="49073247#0 196961377#3 593849718#0"/>
    </vehicle>
    <vehicle id="Flow2.3" type="Car2" depart="6.87" fromTaz="3086736518" toTaz="1973482489">
        <route edges="593847705 593847703#0 300077497#0 35274074#0 506322846#0"/>
    </vehicle>
    <vehicle id="Flow28.1" type="Car28" depart="6.98" fromTaz="cluster3086736522_655375108_655375247_655375401_#1more" toTaz="cluster_3208478133_655375293_655375296_9631728504_#1more">
        <route edges="360843888 244450512#4 244450512#5"/>
    </vehicle>
    <vehicle id="Flow24.4" type="Car24" depart="7.02" fromTaz="cluster_5372642442_631668976_631668981_631669076" toTaz="2690921409">
        <route edges="506322851#0"/>
    </vehicle>
    <vehicle id="Flow0.4" type="Car0" depart="7.32" fromTaz="cluster_9383263990_9383263991_9383263992_9383263993" toTaz="cluster655375336_end_0_655375336_end_1_655375336_end_10_655375336_end_11_#8more">
        <route edges="506322844#0 263217604#0 594658757#0"/>
    </vehicle>
    <vehicle id="Flow20.2" type="Car20" depart="7.32" fromTaz="cluster_3431431575_4777363357_655375231_6982059025" toTaz="3086736518">
        <route edges="51362429#0 593847701"/>
    </vehicle>
    <vehicle id="Flow8.2" type="Car8" depart="7.32" fromTaz="2444664370" toTaz="cluster_2664674491_655375287_655375288">
        <route edges="1068234499#0 182334378#0 232003903#0 51289045#1 51289045#3 51289045#4 260881641"/>
    </vehicle>
    <vehicle id="Flow18.1" type="Car18" depart="7.32" fromTaz="cluster_2528018119_655375236" toTaz="cluster_2038168688_655375573">
        <route edges="300077497#0 35274074#0"/>
    </vehicle>
    <vehicle id="Flow23.3" type="Car23" depart="7.32" fromTaz="cluster655375228_655375240" toTaz="cluster_9383263990_9383263991_9383263992_9383263993">
        <route edges="263217603#0"/>
    </vehicle>
    <vehicle id="Flow29.1" type="Car29" depart="7.32" fromTaz="631668818" toTaz="631668923">
        <route edges="49695733#2"/>
    </vehicle>
    <vehicle id="Flow9.2" type="Car9" depart="7.50" fromTaz="3086736515" toTaz="cluster_623980147_623980152">
        <route edges="593852343 906806086#0 593852345#0 196961215#2"/>
    </vehicle>
    <vehicle id="Flow1.2" type="Car1" depart="7.69" fromTaz="cluster_2038168688_655375573" toTaz="3196998953">
        <route edges="506322848#0 506322844#0 263217604#0 303647015#0"/>
    </vehicle>
    <vehicle id="Flow19.5" type="Car19" depart="8.57" fromTaz="622618159" toTaz="619136999">
        <route edges="48794890 668037874 196961377#0"/>
    </vehicle>
    <vehicle id="Flow33.5" type="Car33" depart="8.57" fromTaz="cluster619136880_619136881_cluster_4510442270_5296993511_5296993513_619136931_#1more" toTaz="cluster619136899_619136900_cluster_619136929_619136942">
        <route edges="910567294"/>
    </vehicle>
    <vehicle id="Flow24.5" type="Car24" depart="8.77" fromTaz="cluster_5372642442_631668976_631668981_631669076" toTaz="2690921409">
        <route edges="506322851#0"/>
    </vehicle>
    <vehicle id="Flow13.3" type="Car13" depart="9.09" fromTaz="cluster_3208478133_655375293_655375296_9631728504_#1more" toTaz="2444664370">
        <route edges="593844221#0 -E0 593847704#0 49073272#0 49073272#1 49073272#3 49073272#4 353392316#0 288135626#0"/>
    </vehicle>
    <vehicle id="Flow6.3" type="Car6" depart="9.09" fromTaz="cluster_623980147_623980152" toTaz="3431431576">
        <route edges="241518668#0 336063376#0"/>
    </vehicle>
    <vehicle id="Flow0.5" type="Car0" depart="9.15" fromTaz="cluster_9383263990_9383263991_9383263992_9383263993" toTaz="cluster655375336_end_0_655375336_end_1_655375336_end_10_655375336_end_11_#8more">
        <route edges="506322844#0 -300077497#8 -300077497#5 182334378#0"/>
    </vehicle>
    <vehicle id="Flow12.4" type="Car12" depart="9.16" fromTaz="3091610527" toTaz="6252193077">
        <route edges="49073247#0 196961377#3 593849718#0"/>
    </vehicle>
    <vehicle id="Flow2.4" type="Car2" depart="9.16" fromTaz="3086736518" toTaz="1973482489">
        <route edges="593847705 593847703#0 300077497#0 35274074#0 506322846#0"/>
    </vehicle>
    <vehicle id="Flow14.3" type="Car14" depart="9.18" fromTaz="622618015" toTaz="622618015">
        <route edges="49073274 593852346 593849715 593849724"/>
    </vehicle>
    <vehicle id="Flow34.1" type="Car34" depart="9.38" fromTaz="cluster655375336_end_0_655375336_end_1_655375336_end_10_655375336_end_11_#8more" toTaz="cluster_2528018119_655375236">
        <route edges="49695736#0"/>
    </vehicle>
    <vehicle id="Flow23.4" type="Car23" depart="9.76" fromTaz="cluster655375228_655375240" toTaz="cluster_9383263990_9383263991_9383263992_9383263993">
        <route edges="263217603#0"/>
    </vehicle>
    <vehicle id="Flow11.3" type="Car11" depart="10.00" fromTaz="cluster_9383263990_9383263991_9383263992_9383263993" toTaz="655375239">
        <route edges="506322844#0"/>
    </vehicle>
    <vehicle id="Flow25.1" type="Car25" depart="10.00" fromTaz="631668923" toTaz="cluster_5372642442_631668976_631668981_631669076">
        <route edges="1068234498#0"/>
    </vehicle>
    <vehicle id="Flow19.6" type="Car19" depart="10.28" fromTaz="622618159" toTaz="619136999">
        <route edges="48794890 668037874 196961377#0"/>
    </vehicle>
    <vehicle id="Flow33.6" type="Car33" depart="10.28" fromTaz="cluster619136880_619136881_cluster_4510442270_5296993511_5296993513_619136931_#1more" toTaz="cluster619136899_619136900_cluster_619136929_619136942">
        <route edges="910567294"/>
    </vehicle>
    <vehicle id="Flow7.2" type="Car7" depart="10.34" fromTaz="2749340167" toTaz="1926948228">
        <route edges="-182336886 198001764#0 261898534"/>
    </vehicle>
    <vehicle id="Flow24.6" type="Car24" depart="10.52" fromTaz="cluster_5372642442_631668976_631668981_631669076" toTaz="2690921409">
        <route edges="506322851#0"/>
    </vehicle>
    <vehicle id="Flow0.6" type="Car0" depart="10.97" fromTaz="cluster_9383263990_9383263991_9383263992_9383263993" toTaz="cluster655375336_end_0_655375336_end_1_655375336_end_10_655375336_end_11_#8more">
        <route edges="506322844#0 263217604#0 594658760#0"/>
    </vehicle>
    <vehicle id="Flow20.3" type="Car20" depart="10.97" fromTaz="cluster_3431431575_4777363357_655375231_6982059025" toTaz="3086736518">
        <route edges="51362429#0 593847701"/>
    </vehicle>
    <vehicle id="Flow8.3" type="Car8" depart="10.97" fromTaz="2444664370" toTaz="cluster_2664674491_655375287_655375288">
        <route edges="1068234499#0 182334378#0 232003903#0 51289045#1 51289045#3 51289045#4 260881641"/>
    </vehicle>
    <vehicle id="Flow4.2" type="Car4" depart="11.11" fromTaz="655375239" toTaz="655375241">
        <route edges="E1 1334905223#0"/>
    </vehicle>
    <vehicle id="Flow9.3" type="Car9" depart="11.25" fromTaz="3086736515" toTaz="cluster_623980147_623980152">
        <route edges="593852343 906806086#0 593852345#0 196961215#2"/>
    </vehicle>
    <vehicle id="Flow21.2" type="Car21" depart="11.32" fromTaz="1973482489" toTaz="2013717678">
        <route edges="506322846#2 288135628#0"/>
    </vehicle>
    <vehicle id="Flow12.5" type="Car12" depart="11.45" fromTaz="3091610527" toTaz="6252193077">
        <route edges="49073247#0 196961377#3 593849718#0"/>
    </vehicle>
    <vehicle id="Flow2.5" type="Car2" depart="11.45" fromTaz="3086736518" toTaz="1973482489">
        <route edges="593847705 593847703#0 300077497#0 35274074#0 506322846#0"/>
    </vehicle>
    <vehicle id="Flow1.3" type="Car1" depart="11.54" fromTaz="cluster_2038168688_655375573" toTaz="3196998953">
        <route edges="506322848#0 506322844#0 263217604#0 303647015#0"/>
    </vehicle>
    <vehicle id="Flow10.1" type="Car10" depart="11.54" fromTaz="3092676101" toTaz="2713733789">
        <route edges="268564473#0 288878927 196961378#1"/>
    </vehicle>
    <vehicle id="Flow19.7" type="Car19" depart="12.00" fromTaz="622618159" toTaz="619136999">
        <route edges="48794890 668037874 196961377#0"/>
    </vehicle>
    <vehicle id="Flow33.7" type="Car33" depart="12.00" fromTaz="cluster619136880_619136881_cluster_4510442270_5296993511_5296993513_619136931_#1more" toTaz="cluster619136899_619136900_cluster_619136929_619136942">
        <route edges="910567294"/>
    </vehicle>
    <vehicle id="Flow13.4" type="Car13" depart="12.12" fromTaz="cluster_3208478133_655375293_655375296_9631728504_#1more" toTaz="2444664370">
        <route edges="593844221#0 49695736#0 300077497#0 35274074#0 506322846#0 506322846#2 288135626#0"/>
    </vehicle>
    <vehicle id="Flow6.4" type="Car6" depart="12.12" fromTaz="cluster_623980147_623980152" toTaz="3431431576">
        <route edges="241518668#0 336063376#0"/>
    </vehicle>
    <vehicle id="Flow23.5" type="Car23" depart="12.20" fromTaz="cluster655375228_655375240" toTaz="cluster_9383263990_9383263991_9383263992_9383263993">
        <route edges="263217603#0"/>
    </vehicle>
    <vehicle id="Flow14.4" type="Car14" depart="12.24" fromTaz="622618015" toTaz="622618015">
        <route edges="49073274 593852346 593849715 49073272#0 593847702#3 593849721"/>
    </vehicle>
    <vehicle id="Flow24.7" type="Car24" depart="12.28" fromTaz="cluster_5372642442_631668976_631668981_631669076" toTaz="2690921409">
        <route edges="506322851#0"/>
    </vehicle>
    <vehicle id="Flow27.1" type="Car27" depart="12.50" fromTaz="cluster619136880_619136881_cluster_4510442270_5296993511_5296993513_619136931_#1more" toTaz="622618165">
        <route edges="48794887#0"/>
    </vehicle>
    <vehicle id="Flow30.1" type="Car30" depart="12.50" fromTaz="655375245" toTaz="cluster655375228_655375240">
        <route edges="244450512#1 244450512#4 244450512#5 593844221#0 49695736#0 300077497#0 300077497#6 E1"/>
    </vehicle>
    <vehicle id="Flow0.7" type="Car0" depart="12.80" fromTaz="cluster_9383263990_9383263991_9383263992_9383263993" toTaz="cluster655375336_end_0_655375336_end_1_655375336_end_10_655375336_end_11_#8more">
        <route edges="506322844#0 -300077497#8 -300077497#5 182334378#0"/>
    </vehicle>
    <vehicle id="Flow11.4" type="Car11" depart="13.33" fromTaz="cluster_9383263990_9383263991_9383263992_9383263993" toTaz="655375239">
        <route edges="506322844#0"/>
    </vehicle>
    <vehicle id="Flow19.8" type="Car19" depart="13.71" fromTaz="622618159" toTaz="619136999">
        <route edges="48794890 668037874 196961377#0"/>
    </vehicle>
    <vehicle id="Flow33.8" type="Car33" depart="13.71" fromTaz="cluster619136880_619136881_cluster_4510442270_5296993511_5296993513_619136931_#1more" toTaz="cluster619136899_619136900_cluster_619136929_619136942">
        <route edges="910567294"/>
    </vehicle>
    <vehicle id="Flow12.6" type="Car12" depart="13.74" fromTaz="3091610527" toTaz="6252193077">
        <route edges="49073247#0 196961377#3 593849718#0"/>
    </vehicle>
    <vehicle id="Flow2.6" type="Car2" depart="13.74" fromTaz="3086736518" toTaz="1973482489">
        <route edges="593847705 593847703#0 300077497#0 35274074#0 506322846#0"/>
    </vehicle>
    <vehicle id="Flow28.2" type="Car28" depart="13.95" fromTaz="cluster3086736522_655375108_655375247_655375401_#1more" toTaz="cluster_3208478133_655375293_655375296_9631728504_#1more">
        <route edges="360843888 244450512#4 244450512#5"/>
    </vehicle>
    <vehicle id="Flow24.8" type="Car24" depart="14.03" fromTaz="cluster_5372642442_631668976_631668981_631669076" toTaz="2690921409">
        <route edges="506322851#0"/>
    </vehicle>
    <vehicle id="Flow0.8" type="Car0" depart="14.63" fromTaz="cluster_9383263990_9383263991_9383263992_9383263993" toTaz="cluster655375336_end_0_655375336_end_1_655375336_end_10_655375336_end_11_#8more">
        <route edges="506322844#0 263217604#0 594658757#0"/>
    </vehicle>
    <vehicle id="Flow20.4" type="Car20" depart="14.63" fromTaz="cluster_3431431575_4777363357_655375231_6982059025" toTaz="3086736518">
        <route edges="51362429#0 593847701"/>
    </vehicle>
    <vehicle id="Flow8.4" type="Car8" depart="14.63" fromTaz="2444664370" toTaz="cluster_2664674491_655375287_655375288">
        <route edges="1068234499#0 182334378#0 232003903#0 51289045#1 51289045#3 51289045#4 260881641"/>
    </vehicle>
    <vehicle id="Flow18.2" type="Car18" depart="14.63" fromTaz="cluster_2528018119_655375236" toTaz="cluster_2038168688_655375573">
        <route edges="182334379#0 238526531#0"/>
    </vehicle>
    <vehicle id="Flow23.6" type="Car23" depart="14.63" fromTaz="cluster655375228_655375240" toTaz="cluster_9383263990_9383263991_9383263992_9383263993">
        <route edges="263217603#0"/>
    </vehicle>
    <vehicle id="Flow29.2" type="Car29" depart="14.63" fromTaz="631668818" toTaz="631668923">
        <route edges="49695733#2"/>