<additional>
    <tlLogic id="joinedS_3086736518_4510431305_655375232_655375233_#5more" type="static" programID="integrated_0" offset="0">
        <param key="tls.ignore-internal-junction-jam" value="true"/>
        <phase duration="99" state="gggggggggggggrggggggggggggrgggggggggg"/>
        <phase duration="4" state="yyyyyyyyyyyyyryyyyyyyyyyyyryyyyyyyyyy"/>
        <phase duration="4" state="rrrrrrrrrrrrrrrrrrrrrrrrrrrrrrrrrrrrr"/>
        <phase duration="68" state="rrrrrrrrrrrrrgrrrrrrrrrrrrgrrrrrrrrrr"/>
        <phase duration="3" state="rrrrrrrrrrrrryrrrrrrrrrrrryrrrrrrrrrr"/>
        <phase duration="5" state="rrrrrrrrrrrrrrrrrrrrrrrrrrrrrrrrrrrrr"/>
        <phase duration="12" state="rrrrrrrrrrrrrrrrrrrrrrrrrrrrrrrrrrrrr"/>
        <phase duration="3" state="rrrrrrrrrrrrrrrrrrrrrrrrrrrrrrrrrrrrr"/>
        <phase duration="5" state="rrrrrrrrrrrrrrrrrrrrrrrrrrrrrrrrrrrrr"/>
        <phase duration="3" state="rrrrrrrrrrrrrrrrrrrrrrrrrrrrrrrrrrrrr"/>
    </tlLogic>
    <tlLogic id="joinedS_3086736522_655375108_655375246_655375247_#8more" type="static" programID="integrated_0" offset="0">
        <param key="tls.ignore-internal-junction-jam" value="true"/>
        <phase duration="114" state="rrrrggrrggrrggrggrrrggggggg"/>
        <phase duration="3" state="rrrryyrryyrryyryyrrryyyyyyy"/>
        <phase duration="3" state="rrrrrrrrrrrrrrrrrrrrrrrrrrr"/>
        <phase duration="60" state="ggggrrrgrrggrrrrrgggrrrrrrr"/>
        <phase duration="3" state="yyyyrrryrryyrrrrryyyrrrrrrr"/>
        <phase duration="2" state="rrrrrrrrrrrrrrrrrrrrrrrrrrr"/>
        <phase duration="15" state="rrrrrrgrrrrrrrgrrrrrrrrrrrr"/>
        <phase duration="3" state="rrrrrryrrrrrrryrrrrrrrrrrrr"/>
    </tlLogic>
    <tlLogic id="joinedS_4510442270_4510564528_5296993511_5296993513_#3more" type="static" programID="integrated_0" offset="0">
        <param key="tls.ignore-internal-junction-jam" value="true"/>
        <phase duration="71" state="gggrgggrgggrrgggggggrrr"/>
        <phase duration="3" state="yyyryyyryyyrryyyyyyyrrr"/>
        <phase duration="3" state="rrrrrrrrrrrrrrrrrrrrrrr"/>
        <phase duration="39" state="rrrgrrrgrrrggrrrrrrrgrr"/>
        <phase duration="3" state="rrryrrryrrryyrrrrrrryrr"/>
        <phase duration="3" state="rrrrrrrrrrrrrrrrrrrrrrr"/>
        <phase duration="32" state="rrrrrrrrrrrrrrrrrrrrrgg"/>
        <phase duration="3" state="rrrrrrrrrrrrrrrrrrrrryy"/>
        <phase duration="3" state="rrrrrrrrrrrrrrrrrrrrrrr"/>
        <phase duration="12" state="rrrrrrrrrrrrrrrrrrrrrrr"/>
        <phase duration="3" state="rrrrrrrrrrrrrrrrrrrrrrr"/>
        <phase duration="2" state="rrrrrrrrrrrrrrrrrrrrrrr"/>
        <phase duration="9" state="rrrrrrrrrrrrrrrrrrrrrrr"/>
        <phase duration="3" state="rrrrrrrrrrrrrrrrrrrrrrr"/>
        <phase duration="3" state="rrrrrrrrrrrrrrrrrrrrrrr"/>
        <phase duration="3" state="rrrrrrrrrrrrrrrrrrrrrrr"/>
        <phase duration="3" state="rrrrrrrrrrrrrrrrrrrrrrr"/>
        <phase duration="2" state="rrrrrrrrrrrrrrrrrrrrrrr"/>
    </tlLogic>
    <tlLogic id="joinedS_4510564557_5296993506_5296993507_619136899_#3more" type="static" programID="integrated_0" offset="0">
        <param key="tls.ignore-internal-junction-jam" value="true"/>
        <phase duration="71" state="rrrgggrrgggggrrrgggrrrggg"/>
        <phase duration="3" state="rrryyyrryyyyyrrryyyrrryyy"/>
        <phase duration="3" state="rrrrrrrrrrrrrrrrrrrrrrrrr"/>
        <phase duration="39" state="gggrrrggrrrrrgggrrrgggrrr"/>
        <phase duration="3" state="yyyrrryyrrrrryyyrrryyyrrr"/>
        <phase duration="3" state="rrrrrrrrrrrrrrrrrrrrrrrrr"/>
        <phase duration="32" state="rrrrrrrrrrrrrrrrrrrrrrrrr"/>
        <phase duration="3" state="rrrrrrrrrrrrrrrrrrrrrrrrr"/>
        <phase duration="3" state="rrrrrrrrrrrrrrrrrrrrrrrrr"/>
        <phase duration="12" state="rrrrrrrrrrrrrrrrrrrrrrrrr"/>
        <phase duration="3" state="rrrrrrrrrrrrrrrrrrrrrrrrr"/>
        <phase duration="2" state="rrrrrrrrrrrrrrrrrrrrrrrrr"/>
        <phase duration="9" state="rrrrrrrrrrrrrrrrrrrrrrrrr"/>
        <phase duration="3" state="rrrrrrrrrrrrrrrrrrrrrrrrr"/>
        <phase duration="3" state="rrrrrrrrrrrrrrrrrrrrrrrrr"/>
        <phase duration="3" state="rrrrrrrrrrrrrrrrrrrrrrrrr"/>
        <phase duration="3" state="rrrrrrrrrrrrrrrrrrrrrrrrr"/>
        <phase duration="2" state="rrrrrrrrrrrrrrrrrrrrrrrrr"/>
    </tlLogic>
    <tlLogic id="joinedS_4777363344_622618015_622618144_622618197_#2more" type="static" programID="integrated_0" offset="0">
        <param key="tls.ignore-internal-junction-jam" value="true"/>
        <phase duration="94" state="ggrgggrrrrrggrggrr"/>
        <phase duration="4" state="yyryyyrrrrryyryyrr"/>
        <phase duration="2" state="rrrrrrrrrrrrrrrrrr"/>
        <phase duration="50" state="rrgrrrggrggrrrrrgg"/>
        <phase duration="3" state="rryrrryyryyrrrrryy"/>
        <phase duration="4" state="rrrrrrrrrrrrrrrrrr"/>
        <phase duration="17" state="rrrrrrrrgrrrrrrrrr"/>
        <phase duration="4" state="rrrrrrrryrrrrrrrrr"/>
        <phase duration="2" state="rrrrrrrrrrrrrrrrrr"/>
        <phase duration="5" state="rrrrrrrrrrrrrgrrrr"/>
        <phase duration="3" state="rrrrrrrrrrrrryrrrr"/>
        <phase duration="5" state="rrrrrrrrrrrrrrrrrr"/>
        <phase duration="3" state="rrrrrrrrrrrrrrrrrr"/>
        <phase duration="4" state="rrrrrrrrrrrrrrrrrr"/>
        <phase duration="4" state="rrrrrrrrrrrrrrrrrr"/>
        <phase duration="2" state="rrrrrrrrrrrrrrrrrr"/>
    </tlLogic>
    <tlLogic id="joinedS_622618112_622618230_7723489785_7723489786" type="static" programID="integrated_0" offset="0">
        <param key="tls.ignore-internal-junction-jam" value="true"/>
        <phase duration="94" state="ggrrrgggrrrrgg"/>
        <phase duration="4" state="yyrrryyyrrrryy"/>
        <phase duration="2" state="rrrrrrrrrrrrrr"/>
        <phase duration="50" state="rrrggrrrggrgrr"/>
        <phase duration="3" state="rrryyrrryyryrr"/>
        <phase duration="4" state="rrrrrrrrrrrrrr"/>
        <phase duration="17" state="rrgrrrrrrrrrrr"/>
        <phase duration="4" state="rryrrrrrrrrrrr"/>
        <phase duration="2" state="rrrrrrrrrrrrrr"/>
        <phase duration="5" state="rrrrrrrrrrgrrr"/>
        <phase duration="3" state="rrrrrrrrrryrrr"/>
        <phase duration="5" state="rrrrrrrrrrrrrr"/>
        <phase duration="3" state="rrrrrrrrrrrrrr"/>
        <phase duration="4" state="rrrrrrrrrrrrrr"/>
        <phase duration="4" state="rrrrrrrrrrrrrr"/>
        <phase duration="2" state="rrrrrrrrrrrrrr"/>
    </tlLogic>
    <tlLogic id="joinedS_4868177053_4868177068_655375228_655375239_#1more" type="static" programID="integrated_0" offset="0">
        <param key="tls.ignore-internal-junction-jam" value="true"/>
        <phase duration="72" state="gggggggggggrrrggggrrrrrgggg"/>
        <phase duration="3" state="yyyyyyyyyyyrrryyyyrrrrryyyy"/>
        <phase duration="2" state="rrrrrrrrrrrrrrrrrrrrrrrrrrr"/>
        <phase duration="60" state="rrrrrrrrrrrggrrrrrggggrrrrr"/>
        <phase duration="3" state="rrrrrrrrrrryyrrrrryyyyrrrrr"/>
        <phase duration="2" state="rrrrrrrrrrrrrrrrrrrrrrrrrrr"/>
        <phase duration="8" state="rrrrrrrrrrrrrgrrrrrrrrgrrrr"/>
        <phase duration="3" state="rrrrrrrrrrrrryrrrrrrrryrrrr"/>
    </tlLogic>
    <tlLogic id="joinedS_655375241_655375242" type="static" programID="integrated_0" offset="0">
        <param key="tls.ignore-internal-junction-jam" value="true"/>
        <phase duration="80" state="gggggrrrggggg"/>
        <phase duration="3" state="yyyyyrrryyyyy"/>
        <phase duration="2" state="rrrrrrrrrrrrr"/>
        <phase duration="45" state="rrrrrgrgrrrrr"/>
        <phase duration="3" state="rrrrryryrrrrr"/>
        <phase duration="2" state="rrrrrrrrrrrrr"/>
        <phase duration="10" state="rrrrrrgrrrrrr"/>
        <phase duration="3" state="rrrrrryrrrrrr"/>
        <phase duration="2" state="rrrrrrrrrrrrr"/>
    </tlLogic>
    <tlLogic id="joinedS_11510670762_3086736519_3086736520_3208478133_#21more" type="static" programID="integrated_0" offset="0">
        <param key="tls.ignore-internal-junction-jam" value="true"/>
        <phase duration="57" state="rggggggggggggrrrrrrrrrrggggggggggggggrrrrgggggggrrrrggggggggrrggggrrrggggrrrrgggggrrrgggrrrrrgggr"/>
        <phase duration="4" state="ryyyyyyyyyyyyrrrrrrrrrryyyyyyyyyyyyyyrrrryyyyyyyrrrryyyyyyyyrryyyyrrryyyyrrrryyyyyrrryyyrrrrryyyr"/>
        <phase duration="4" state="rrrrrrrrrrrrrrrrrrrrrrrrrrrrrrrrrrrrrrrrrrrrrrrrrrrrrrrrrrrrrrrrrrrrrrrrrrrrrrrrrrrrrrrrrrrrrrrrr"/>
        <phase duration="49" state="grrrrrrrrrrrrggrrggggggrrrrrrrrrrrrrrggggrrrrrrrggggrrrrrrrrggrrrrgggrrrrgrrgrrrrrgrrrrrgggggrrrr"/>
        <phase duration="4" state="yrrrrrrrrrrrryyrryyyyyyrrrrrrrrrrrrrryyyyrrrrrrryyyyrrrrrrrryyrrrryyyrrrryrryrrrrryrrrrryyyyyrrrr"/>
        <phase duration="4" state="rrrrrrrrrrrrrrrrrrrrrrrrrrrrrrrrrrrrrrrrrrrrrrrrrrrrrrrrrrrrrrrrrrrrrrrrrrrrrrrrrrrrrrrrrrrrrrrrr"/>
        <phase duration="47" state="rrrrrrrrrrrrrrrggrrrrrrrrrrrrrrrrrrrrrrrrrrrrrrrrrrrrrrrrrrrrrrrrrrrrrrrrrggrrrrrrrggrrrrrrrrrrrr"/>
        <phase duration="4" state="rrrrrrrrrrrrrrryyrrrrrrrrrrrrrrrrrrrrrrrrrrrrrrrrrrrrrrrrrrrrrrrrrrrrrrrrryyrrrrrrryyrrrrrrrrrrrr"/>
        <phase duration="4" state="rrrrrrrrrrrrrrrrrrrrrrrrrrrrrrrrrrrrrrrrrrrrrrrrrrrrrrrrrrrrrrrrrrrrrrrrrrrrrrrrrrrrrrrrrrrrrrrrr"/>
        <phase duration="9" state="rrrrrrrrrrrrrrrrrrrrrrrrrrrrrrrrrrrrrrrrrrrrrrrrrrrrrrrrrrrrrrrrrrrrrrrrrrrrrrrrrrrrrrrrrrrrrrrrg"/>
        <phase duration="3" state="rrrrrrrrrrrrrrrrrrrrrrrrrrrrrrrrrrrrrrrrrrrrrrrrrrrrrrrrrrrrrrrrrrrrrrrrrrrrrrrrrrrrrrrrrrrrrrrry"/>
        <phase duration="5" state="rrrrrrrrrrrrrrrrrrrrrrrrrrrrrrrrrrrrrrrrrrrrrrrrrrrrrrrrrrrrrrrrrrrrrrrrrrrrrrrrrrrrrrrrrrrrrrrrr"/>
        <phase duration="3" state="rrrrrrrrrrrrrrrrrrrrrrrrrrrrrrrrrrrrrrrrrrrrrrrrrrrrrrrrrrrrrrrrrrrrrrrrrrrrrrrrrrrrrrrrrrrrrrrrr"/>
        <phase duration="1" state="rrrrrrrrrrrrrrrrrrrrrrrrrrrrrrrrrrrrrrrrrrrrrrrrrrrrrrrrrrrrrrrrrrrrrrrrrrrrrrrrrrrrrrrrrrrrrrrrr"/>
        <phase duration="4" state="rrrrrrrrrrrrrrrrrrrrrrrrrrrrrrrrrrrrrrrrrrrrrrrrrrrrrrrrrrrrrrrrrrrrrrrrrrrrrrrrrrrrrrrrrrrrrrrrr"/>
        <phase duration="4" state="rrrrrrrrrrrrrrrrrrrrrrrrrrrrrrrrrrrrrrrrrrrrrrrrrrrrrrrrrrrrrrrrrrrrrrrrrrrrrrrrrrrrrrrrrrrrrrrrr"/>
    </tlLogic>
    <tlLogic id="joinedS_302303166_4436527890_4436527892_4487263612_#16more" type="static" programID="integrated_0" offset="0">
        <param key="tls.ignore-internal-junction-jam" value="true"/>
        <phase duration="71" state="rrrgggrrrrrrrrrrrgggrrrgggrrrrrgrrggggrrggggrrrrrggggrrrggggrrrrggggggggggggrrrrrrrr"/>
        <phase duration="3" state="rrryyyrrrrrrrrrrryyyrrryyyrrrrryrryyyyrryyyyrrrrryyyyrrryyyyrrrryyyyyyyyyyyyrrrrrrrr"/>
        <phase duration="3" state="rrrrrrrrrrrrrrrrrrrrrrrrrrrrrrrrrrrrrrrrrrrrrrrrrrrrrrrrrrrrrrrrrrrrrrrrrrrrrrrrrrrr"/>
        <phase duration="39" state="gggrrrrggggggggggrrrrggrrrrggggrrrrrrrggrrrrgggrrrrrrgrrrrrrggrrrrrrrrrrrrrrgggggggg"/>
        <phase duration="3" state="yyyrrrryyyyyyyyyyrrrryyrrrryyyyrrrrrrryyrrrryyyrrrrrryrrrrrryyrrrrrrrrrrrrrryyyyyyyy"/>
        <phase duration="3" state="rrrrrrrrrrrrrrrrrrrrrrrrrrrrrrrrrrrrrrrrrrrrrrrrrrrrrrrrrrrrrrrrrrrrrrrrrrrrrrrrrrrr"/>
        <phase duration="32" state="rrrrrrrrrrrrrrrrrrrrrrrrrrrrrrrrrrrrrrrrrrrrrrrggrrrrrggrrrrrrggrrrrrrrrrrrrrrrrrrrr"/>
        <phase duration="3" state="rrrrrrrrrrrrrrrrrrrrrrrrrrrrrrrrrrrrrrrrrrrrrrryyrrrrryyrrrrrryyrrrrrrrrrrrrrrrrrrrr"/>
        <phase duration="3" state="rrrrrrrrrrrrrrrrrrrrrrrrrrrrrrrrrrrrrrrrrrrrrrrrrrrrrrrrrrrrrrrrrrrrrrrrrrrrrrrrrrrr"/>
        <phase duration="12" state="rrrrrrgrrrrrrrrrrrrrgrrrrrgrrrrrggrrrrrrrrrrrrrrrrrrrrrrrrrrrrrrrrrrrrrrrrrrrrrrrrrr"/>
        <phase duration="3" state="rrrrrryrrrrrrrrrrrrryrrrrryrrrrryyrrrrrrrrrrrrrrrrrrrrrrrrrrrrrrrrrrrrrrrrrrrrrrrrrr"/>
        <phase duration="2" state="rrrrrrrrrrrrrrrrrrrrrrrrrrrrrrrrrrrrrrrrrrrrrrrrrrrrrrrrrrrrrrrrrrrrrrrrrrrrrrrrrrrr"/>
        <phase duration="9" state="rrrrrrrrrrrrrrrrrrrrrrrrrrrrrrrrrrrrrrrrrrrrrrrrrrrrrrrrrrrrrrrrrrrrrrrrrrrrrrrrrrrr"/>
        <phase duration="3" state="rrrrrrrrrrrrrrrrrrrrrrrrrrrrrrrrrrrrrrrrrrrrrrrrrrrrrrrrrrrrrrrrrrrrrrrrrrrrrrrrrrrr"/>
        <phase duration="3" state="rrrrrrrrrrrrrrrrrrrrrrrrrrrrrrrrrrrrrrrrrrrrrrrrrrrrrrrrrrrrrrrrrrrrrrrrrrrrrrrrrrrr"/>
        <phase duration="3" state="rrrrrrrrrrrrrrrrrrrrrrrrrrrrrrrrrrrrrrrrrrrrrrrrrrrrrrrrrrrrrrrrrrrrrrrrrrrrrrrrrrrr"/>
        <phase duration="3" state="rrrrrrrrrrrrrrrrrrrrrrrrrrrrrrrrrrrrrrrrrrrrrrrrrrrrrrrrrrrrrrrrrrrrrrrrrrrrrrrrrrrr"/>
        <phase duration="2" state="rrrrrrrrrrrrrrrrrrrrrrrrrrrrrrrrrrrrrrrrrrrrrrrrrrrrrrrrrrrrrrrrrrrrrrrrrrrrrrrrrrrr"/>
    </tlLogic>
</additional>