<?xml version="1.0" encoding="UTF-8"?>

<!-- generated on 2026-01-17 15:05:47 by Eclipse SUMO netedit Version 1.24.0
-->

<additional xmlns:xsi="http://www.w3.org/2001/XMLSchema-instance" xsi:noNamespaceSchemaLocation="http://sumo.dlr.de/xsd/additional_file.xsd">
    <!-- Shapes -->
    <poly id="1002225672" type="landuse" color="194,194,130" fill="1" layer="-3.00" geo="1" shape="121.530564,25.040577 121.530663,25.040552 121.530705,25.040707 121.530610,25.040728 121.530564,25.040577"/>
    <poly id="1004876573" type="commercial" color="209,209,204" fill="1" layer="-3.00" geo="1" shape="121.520156,25.051266 121.519852,25.051324 121.519887,25.051455 121.519921,25.051591 121.519934,25.051632 121.519926,25.051640 121.519911,25.051642 121.519826,25.051330 121.519791,25.051337 121.519912,25.051801 121.519913,25.051805 121.518662,25.052074 121.518707,25.052272 121.518765,25.052450 121.519478,25.052248 121.519463,25.052100 121.519470,25.052093 121.519528,25.052076 121.519580,25.052061 121.519684,25.052030 121.519783,25.052001 121.519854,25.051980 121.519963,25.051948 121.520056,25.051922 121.520215,25.051879 121.520204,25.051705 121.520199,25.051658 121.520194,25.051611 121.520189,25.051565 121.520172,25.051410 121.520156,25.051266"/>
    <poly id="1004876574" type="commercial" color="209,209,204" fill="1" layer="-3.00" geo="1" shape="121.520153,25.051237 121.519847,25.051300 121.519818,25.051187 121.519794,25.051095 121.519768,25.050995 121.519702,25.050742 121.519726,25.050737 121.519781,25.050724 121.519835,25.050713 121.519904,25.050698 121.519977,25.050681 121.520090,25.050656 121.520104,25.050749 121.520126,25.050892 121.519993,25.050919 121.519925,25.050933 121.519866,25.050945 121.519805,25.050957 121.519793,25.050967 121.519794,25.050978 121.519806,25.050986 121.520131,25.050918 121.520137,25.051037 121.520146,25.051132 121.520153,25.051237"/>
    <poly id="1004876575" type="commercial" color="209,209,204" fill="1" layer="-3.00" geo="1" shape="121.520085,25.050633 121.519991,25.050652 121.519918,25.050667 121.519880,25.050676 121.519841,25.050684 121.519807,25.050692 121.519768,25.050700 121.519691,25.050717 121.519657,25.050610 121.519579,25.050369 121.519573,25.050344 121.519970,25.050251 121.520013,25.050396 121.520040,25.050490 121.520055,25.050522 121.520085,25.050633"/>
    <poly id="1004876576" type="commercial" color="209,209,204" fill="1" layer="-3.00" geo="1" shape="121.521433,25.051475 121.521169,25.051455 121.521042,25.051446 121.520999,25.051444 121.520651,25.051421 121.520400,25.051404 121.520391,25.051209 121.520384,25.051067 121.520379,25.050961 121.520505,25.050988 121.520559,25.050980 121.520726,25.050991 121.520872,25.051002 121.520868,25.051136 121.520861,25.051193 121.520860,25.051202 121.520861,25.051224 121.520872,25.051230 121.520885,25.051222 121.520894,25.051126 121.520901,25.051048 121.520914,25.050917 121.520923,25.050811 121.520938,25.050653 121.521414,25.050530 121.521461,25.050518 121.521709,25.050455 121.521739,25.050449 121.521988,25.050974 121.521790,25.050986 121.521471,25.051006 121.521268,25.050993 121.521262,25.050993 121.521249,25.050994 121.521238,25.051001 121.521238,25.051010 121.521253,25.051018 121.521276,25.051020 121.521437,25.051031 121.521437,25.051161 121.521433,25.051475"/>
    <poly id="1004876577" type="landuse" color="194,194,130" fill="1" layer="-3.00" geo="1" shape="121.520868,25.050970 121.520784,25.050962 121.520376,25.050938 121.520359,25.050822 121.520340,25.050646 121.520500,25.050657 121.520623,25.050657 121.520704,25.050657 121.520796,25.050657 121.520911,25.050657 121.520868,25.050970"/>
    <poly id="1004876578" type="landuse" color="194,194,130" fill="1" layer="-3.00" geo="1" shape="121.520509,25.050620 121.520339,25.050614 121.520298,25.050388 121.520297,25.050381 121.520266,25.050226 121.520354,25.050204 121.520411,25.050367 121.520495,25.050449 121.520509,25.050620"/>
    <poly id="1004876579" type="commercial" color="209,209,204" fill="1" layer="-3.00" geo="1" shape="121.520910,25.050632 121.520513,25.050620 121.520503,25.050447 121.520423,25.050367 121.520369,25.050201 121.520789,25.050102 121.520910,25.050632"/>
    <poly id="1004876580" type="commercial" color="209,209,204" fill="1" layer="-3.00" geo="1" shape="121.520938,25.050629 121.520809,25.050107 121.520798,25.050060 121.521474,25.049897 121.521727,25.050424 121.520938,25.050629"/>
    <poly id="1004876584" type="commercial" color="209,209,204" fill="1" layer="-3.00" geo="1" shape="121.521939,25.051466 121.521845,25.051467 121.521750,25.051469 121.521687,25.051470 121.521623,25.051471 121.521565,25.051472 121.521460,25.051475 121.521461,25.051400 121.521462,25.051348 121.521463,25.051288 121.521464,25.051183 121.521465,25.051127 121.521467,25.051030 121.521547,25.051026 121.521610,25.051024 121.521660,25.051021 121.521660,25.051126 121.521660,25.051244 121.521671,25.051252 121.521680,25.051251 121.521686,25.051244 121.521686,25.051127 121.521687,25.051019 121.521730,25.051016 121.521793,25.051013 121.521855,25.051009 121.521937,25.051004 121.522003,25.051000 121.522167,25.051397 121.522109,25.051415 121.521939,25.051466"/>
    <poly id="1005238681" type="tourism" color="207,245,201" fill="1" layer="-2.00" geo="1" shape="121.520293,25.052547 121.520256,25.051895 121.520200,25.051240 121.520139,25.050634 121.520029,25.050264 121.520195,25.050224 121.520218,25.050236 121.520290,25.050657 121.520393,25.051885 121.520426,25.052518 121.520404,25.052549 121.520309,25.052570 121.520293,25.052547"/>
    <poly id="1005298289" type="building" color="255,230,230" fill="1" layer="-1.00" geo="1" shape="121.520391,25.051209 121.520513,25.051189 121.520547,25.051178 121.520511,25.051140 121.520470,25.051139 121.520484,25.051068 121.520384,25.051067 121.520391,25.051209"/>
    <poly id="1005298290" type="building" color="255,230,230" fill="1" layer="-1.00" geo="1" shape="121.520384,25.051067 121.520484,25.051068 121.520505,25.050988 121.520379,25.050961 121.520384,25.051067"/>
    <poly id="1005298291" type="building" color="255,230,230" fill="1" layer="-1.00" geo="1" shape="121.520547,25.051178 121.520559,25.050980 121.520505,25.050988 121.520484,25.051068 121.520470,25.051139 121.520511,25.051140 121.520547,25.051178"/>
    <poly id="1005298292" type="building" color="255,230,230" fill="1" layer="-1.00" geo="1" shape="121.520662,25.051183 121.520663,25.051122 121.520721,25.051124 121.520868,25.051136 121.520861,25.051193 121.520662,25.051183"/>
    <poly id="1005298293" type="building" color="255,230,230" fill="1" layer="-1.00" geo="1" shape="121.520860,25.051132 121.520722,25.051120 121.520726,25.050991 121.520872,25.051002 121.520860,25.051132"/>
    <poly id="1005298299" type="building" color="255,230,230" fill="1" layer="-1.00" geo="1" shape="121.520343,25.050573 121.520287,25.050238 121.520355,25.050228 121.520382,25.050387 121.520482,25.050460 121.520501,25.050577 121.520343,25.050573"/>
    <poly id="1005298304" type="building" color="255,230,230" fill="1" layer="-1.00" geo="1" shape="121.519887,25.051455 121.519852,25.051324 121.520156,25.051266 121.520172,25.051410 121.519887,25.051455"/>
    <poly id="1005298305" type="building" color="255,230,230" fill="1" layer="-1.00" geo="1" shape="121.519841,25.050340 121.519917,25.050310 121.519960,25.050481 121.519911,25.050516 121.519841,25.050340"/>
    <poly id="1005298306" type="building" color="255,230,230" fill="1" layer="-1.00" geo="1" shape="121.519962,25.050548 121.519961,25.050524 121.519960,25.050481 121.520031,25.050466 121.520040,25.050490 121.520055,25.050522 121.519962,25.050548"/>
    <poly id="1005298307" type="building" color="255,230,230" fill="1" layer="-1.00" geo="1" shape="121.519991,25.050652 121.519918,25.050667 121.519886,25.050546 121.519961,25.050524 121.519962,25.050548 121.519991,25.050652"/>
    <poly id="1005298308" type="building" color="255,230,230" fill="1" layer="-1.00" geo="1" shape="121.519886,25.050546 121.519850,25.050557 121.519880,25.050676 121.519918,25.050667 121.519886,25.050546"/>
    <poly id="1005298309" type="building" color="255,230,230" fill="1" layer="-1.00" geo="1" shape="121.519850,25.050557 121.519809,25.050565 121.519841,25.050684 121.519880,25.050676 121.519850,25.050557"/>
    <poly id="1005298310" type="building" color="255,230,230" fill="1" layer="-1.00" geo="1" shape="121.519809,25.050565 121.519772,25.050575 121.519807,25.050692 121.519841,25.050684 121.519809,25.050565"/>
    <poly id="1005298311" type="building" color="255,230,230" fill="1" layer="-1.00" geo="1" shape="121.519772,25.050575 121.519729,25.050588 121.519768,25.050700 121.519807,25.050692 121.519772,25.050575"/>
    <poly id="1005298312" type="building" color="255,230,230" fill="1" layer="-1.00" geo="1" shape="121.519729,25.050588 121.519657,25.050610 121.519691,25.050717 121.519768,25.050700 121.519729,25.050588"/>
    <poly id="1005298313" type="building" color="255,230,230" fill="1" layer="-1.00" geo="1" shape="121.520153,25.051237 121.520146,25.051132 121.519818,25.051187 121.519847,25.051300 121.520153,25.051237"/>
    <poly id="1005298314" type="building" color="255,230,230" fill="1" layer="-1.00" geo="1" shape="121.520146,25.051132 121.519818,25.051187 121.519794,25.051095 121.520137,25.051037 121.520146,25.051132"/>
    <poly id="1005298315" type="building" color="255,230,230" fill="1" layer="-1.00" geo="1" shape="121.520131,25.050918 121.519806,25.050986 121.519768,25.050995 121.519794,25.051095 121.520137,25.051037 121.520131,25.050918"/>
    <poly id="1005298316" type="building" color="255,230,230" fill="1" layer="-1.00" geo="1" shape="121.520126,25.050892 121.519993,25.050919 121.519951,25.050774 121.520001,25.050765 121.520104,25.050749 121.520126,25.050892"/>
    <poly id="1005298317" type="building" color="255,230,230" fill="1" layer="-1.00" geo="1" shape="121.520104,25.050749 121.520001,25.050765 121.519977,25.050681 121.520090,25.050656 121.520104,25.050749"/>
    <poly id="1005298318" type="building" color="255,230,230" fill="1" layer="-1.00" geo="1" shape="121.519951,25.050774 121.519924,25.050780 121.519880,25.050790 121.519925,25.050933 121.519993,25.050919 121.519951,25.050774"/>
    <poly id="1005298319" type="building" color="255,230,230" fill="1" layer="-1.00" geo="1" shape="121.519880,25.050790 121.519857,25.050795 121.519824,25.050803 121.519866,25.050945 121.519925,25.050933 121.519880,25.050790"/>
    <poly id="1005298320" type="building" color="255,230,230" fill="1" layer="-1.00" geo="1" shape="121.519763,25.050816 121.519805,25.050957 121.519866,25.050945 121.519824,25.050803 121.519803,25.050807 121.519763,25.050816"/>
    <poly id="1005298321" type="building" color="255,230,230" fill="1" layer="-1.00" geo="1" shape="121.520001,25.050765 121.519951,25.050774 121.519924,25.050780 121.519904,25.050698 121.519977,25.050681 121.520001,25.050765"/>
    <poly id="1005298322" type="building" color="255,230,230" fill="1" layer="-1.00" geo="1" shape="121.519924,25.050780 121.519857,25.050795 121.519835,25.050713 121.519904,25.050698 121.519924,25.050780"/>
    <poly id="1005298323" type="building" color="255,230,230" fill="1" layer="-1.00" geo="1" shape="121.519803,25.050807 121.519781,25.050724 121.519835,25.050713 121.519857,25.050795 121.519803,25.050807"/>
    <poly id="1005298324" type="building" color="255,230,230" fill="1" layer="-1.00" geo="1" shape="121.519803,25.050807 121.519746,25.050817 121.519742,25.050797 121.519726,25.050737 121.519781,25.050724 121.519803,25.050807"/>
    <poly id="1005484483" type="building" color="255,230,230" fill="1" layer="-1.00" geo="1" shape="121.520894,25.051204 121.520939,25.051209 121.520988,25.051214 121.521000,25.051132 121.520894,25.051126 121.520894,25.051204"/>
    <poly id="1005484484" type="building" color="255,230,230" fill="1" layer="-1.00" geo="1" shape="121.521000,25.051132 121.521005,25.051052 121.520901,25.051048 121.520894,25.051126 121.521000,25.051132"/>
    <poly id="1005484485" type="building" color="255,230,230" fill="1" layer="-1.00" geo="1" shape="121.521005,25.051052 121.521018,25.050987 121.520984,25.050982 121.520986,25.050920 121.520914,25.050917 121.520901,25.051048 121.521005,25.051052"/>
    <poly id="1005484486" type="building" color="255,230,230" fill="1" layer="-1.00" geo="1" shape="121.520914,25.050917 121.520986,25.050920 121.521019,25.050921 121.521019,25.050824 121.520923,25.050811 121.520914,25.050917"/>
    <poly id="1005484487" type="building" color="255,230,230" fill="1" layer="-1.00" geo="1" shape="121.521709,25.050455 121.521461,25.050518 121.521474,25.050544 121.521486,25.050566 121.521530,25.050562 121.521670,25.050549 121.521711,25.050545 121.521751,25.050542 121.521709,25.050455"/>
    <poly id="1005484488" type="building" color="255,230,230" fill="1" layer="-1.00" geo="1" shape="121.521440,25.050649 121.521436,25.050570 121.521530,25.050562 121.521541,25.050643 121.521440,25.050649"/>
    <poly id="1005484489" type="building" color="255,230,230" fill="1" layer="-1.00" geo="1" shape="121.521541,25.050643 121.521548,25.050704 121.521648,25.050707 121.521649,25.050644 121.521541,25.050643"/>
    <poly id="1005484490" type="building" color="255,230,230" fill="1" layer="-1.00" geo="1" shape="121.521541,25.050643 121.521649,25.050644 121.521671,25.050644 121.521670,25.050549 121.521530,25.050562 121.521541,25.050643"/>
    <poly id="1005484491" type="building" color="255,230,230" fill="1" layer="-1.00" geo="1" shape="121.521648,25.050707 121.521726,25.050704 121.521721,25.050646 121.521671,25.050644 121.521649,25.050644 121.521648,25.050707"/>
    <poly id="1005484492" type="building" color="255,230,230" fill="1" layer="-1.00" geo="1" shape="121.521671,25.050644 121.521721,25.050646 121.521711,25.050545 121.521670,25.050549 121.521671,25.050644"/>
    <poly id="1005484493" type="building" color="255,230,230" fill="1" layer="-1.00" geo="1" shape="121.521726,25.050704 121.521796,25.050681 121.521780,25.050632 121.521721,25.050646 121.521726,25.050704"/>
    <poly id="1005484494" type="building" color="255,230,230" fill="1" layer="-1.00" geo="1" shape="121.521780,25.050632 121.521751,25.050542 121.521711,25.050545 121.521721,25.050646 121.521780,25.050632"/>
    <poly id="1005484495" type="building" color="255,230,230" fill="1" layer="-1.00" geo="1" shape="121.521548,25.050704 121.521472,25.050683 121.521440,25.050649 121.521541,25.050643 121.521548,25.050704"/>
    <poly id="1005484496" type="building" color="255,230,230" fill="1" layer="-1.00" geo="1" shape="121.521149,25.050848 121.521074,25.050846 121.521086,25.050740 121.521155,25.050745 121.521149,25.050848"/>
    <poly id="1005484497" type="building" color="255,230,230" fill="1" layer="-1.00" geo="1" shape="121.521149,25.050848 121.521238,25.050845 121.521237,25.050783 121.521237,25.050748 121.521155,25.050745 121.521149,25.050848"/>
    <poly id="1005484498" type="building" color="255,230,230" fill="1" layer="-1.00" geo="1" shape="121.521238,25.050868 121.521238,25.050846 121.521237,25.050783 121.521339,25.050785 121.521340,25.050813 121.521343,25.050865 121.521238,25.050868"/>
    <poly id="1005484499" type="building" color="255,230,230" fill="1" layer="-1.00" geo="1" shape="121.521149,25.050848 121.521150,25.050923 121.521062,25.050921 121.521074,25.050846 121.521149,25.050848"/>
    <poly id="1005484500" type="building" color="255,230,230" fill="1" layer="-1.00" geo="1" shape="121.521150,25.050923 121.521165,25.050923 121.521165,25.050979 121.521057,25.050965 121.521062,25.050921 121.521150,25.050923"/>
    <poly id="1005484501" type="building" color="255,230,230" fill="1" layer="-1.00" geo="1" shape="121.521150,25.050923 121.521165,25.050923 121.521218,25.050922 121.521238,25.050921 121.521238,25.050868 121.521238,25.050846 121.521149,25.050848 121.521150,25.050923"/>
    <poly id="1005484502" type="building" color="255,230,230" fill="1" layer="-1.00" geo="1" shape="121.521238,25.050921 121.521345,25.050919 121.521343,25.050865 121.521238,25.050868 121.521238,25.050921"/>
    <poly id="1005484503" type="building" color="255,230,230" fill="1" layer="-1.00" geo="1" shape="121.521345,25.050919 121.521348,25.050963 121.521428,25.050963 121.521425,25.050811 121.521340,25.050813 121.521345,25.050919"/>
    <poly id="1005484504" type="building" color="255,230,230" fill="1" layer="-1.00" geo="1" shape="121.521428,25.050963 121.521488,25.050963 121.521489,25.050943 121.521491,25.050810 121.521425,25.050811 121.521428,25.050963"/>
    <poly id="1005484505" type="building" color="255,230,230" fill="1" layer="-1.00" geo="1" shape="121.521489,25.050943 121.521589,25.050941 121.521584,25.050814 121.521491,25.050810 121.521489,25.050943"/>
    <poly id="1005484506" type="building" color="255,230,230" fill="1" layer="-1.00" geo="1" shape="121.521589,25.050941 121.521591,25.050977 121.521717,25.050961 121.521706,25.050843 121.521668,25.050834 121.521584,25.050814 121.521589,25.050941"/>
    <poly id="1005484507" type="building" color="255,230,230" fill="1" layer="-1.00" geo="1" shape="121.521717,25.050961 121.521786,25.050959 121.521769,25.050850 121.521706,25.050843 121.521717,25.050961"/>
    <poly id="1005484508" type="building" color="255,230,230" fill="1" layer="-1.00" geo="1" shape="121.521786,25.050959 121.521810,25.050959 121.521843,25.050958 121.521898,25.050942 121.521857,25.050849 121.521769,25.050850 121.521786,25.050959"/>
    <poly id="1005484509" type="building" color="255,230,230" fill="1" layer="-1.00" geo="1" shape="121.521857,25.050849 121.521803,25.050739 121.521722,25.050744 121.521670,25.050745 121.521668,25.050834 121.521857,25.050849"/>
    <poly id="1005484514" type="landuse" color="194,194,130" fill="1" layer="-3.00" geo="1" shape="121.521414,25.050530 121.521436,25.050570 121.521440,25.050649 121.521472,25.050683 121.521433,25.050778 121.521334,25.050764 121.521254,25.050742 121.521058,25.050730 121.520989,25.050750 121.520967,25.050669 121.520938,25.050653 121.521414,25.050530"/>
    <poly id="1005484515" type="building" color="255,230,230" fill="1" layer="-1.00" geo="1" shape="121.521148,25.051225 121.521029,25.051218 121.521037,25.051170 121.521115,25.051172 121.521150,25.051169 121.521148,25.051225"/>
    <poly id="1005484516" type="building" color="255,230,230" fill="1" layer="-1.00" geo="1" shape="121.521150,25.051169 121.521037,25.051170 121.521045,25.051101 121.521154,25.051098 121.521150,25.051169"/>
    <poly id="1005484517" type="building" color="255,230,230" fill="1" layer="-1.00" geo="1" shape="121.521154,25.051098 121.521045,25.051101 121.521050,25.051038 121.521150,25.051042 121.521154,25.051098"/>
    <poly id="1005484518" type="building" color="255,230,230" fill="1" layer="-1.00" geo="1" shape="121.521154,25.051098 121.521177,25.051097 121.521276,25.051091 121.521276,25.051020 121.521188,25.051032 121.521150,25.051042 121.521154,25.051098"/>
    <poly id="1005484519" type="building" color="255,230,230" fill="1" layer="-1.00" geo="1" shape="121.521276,25.051091 121.521331,25.051093 121.521436,25.051098 121.521437,25.051031 121.521276,25.051020 121.521276,25.051091"/>
    <poly id="1005484520" type="building" color="255,230,230" fill="1" layer="-1.00" geo="1" shape="121.521185,25.051262 121.521339,25.051262 121.521336,25.051212 121.521179,25.051215 121.521182,25.051234 121.521185,25.051262"/>
    <poly id="1005484521" type="building" color="255,230,230" fill="1" layer="-1.00" geo="1" shape="121.521179,25.051215 121.521177,25.051165 121.521335,25.051161 121.521336,25.051212 121.521179,25.051215"/>
    <poly id="1005484522" type="building" color="255,230,230" fill="1" layer="-1.00" geo="1" shape="121.521177,25.051165 121.521177,25.051097 121.521276,25.051091 121.521331,25.051093 121.521335,25.051161 121.521177,25.051165"/>
    <poly id="1005484523" type="building" color="255,230,230" fill="1" layer="-1.00" geo="1" shape="121.521335,25.051161 121.521436,25.051158 121.521436,25.051098 121.521331,25.051093 121.521335,25.051161"/>
    <poly id="1005484524" type="building" color="255,230,230" fill="1" layer="-1.00" geo="1" shape="121.521336,25.051212 121.521435,25.051209 121.521436,25.051158 121.521335,25.051161 121.521336,25.051212"/>
    <poly id="1005484525" type="building" color="255,230,230" fill="1" layer="-1.00" geo="1" shape="121.521339,25.051262 121.521435,25.051262 121.521435,25.051209 121.521336,25.051212 121.521339,25.051262"/>
    <poly id="1005484526" type="building" color="255,230,230" fill="1" layer="-1.00" geo="1" shape="121.521435,25.051297 121.521266,25.051294 121.521264,25.051350 121.521434,25.051354 121.521435,25.051297"/>
    <poly id="1005484529" type="building" color="255,230,230" fill="1" layer="-1.00" geo="1" shape="121.521259,25.051463 121.521169,25.051455 121.521185,25.051291 121.521266,25.051294 121.521264,25.051350 121.521259,25.051463"/>
    <poly id="1005484530" type="building" color="255,230,230" fill="1" layer="-1.00" geo="1" shape="121.521169,25.051455 121.521103,25.051451 121.521116,25.051283 121.521185,25.051291 121.521169,25.051455"/>
    <poly id="1005484531" type="building" color="255,230,230" fill="1" layer="-1.00" geo="1" shape="121.521116,25.051283 121.521054,25.051276 121.521042,25.051446 121.521103,25.051451 121.521116,25.051283"/>
    <poly id="1005484548" type="building" color="255,230,230" fill="1" layer="-1.00" geo="1" shape="121.521623,25.051471 121.521687,25.051470 121.521681,25.051286 121.521614,25.051289 121.521617,25.051349 121.521623,25.051471"/>
    <poly id="1005484549" type="building" color="255,230,230" fill="1" layer="-1.00" geo="1" shape="121.521687,25.051470 121.521750,25.051469 121.521742,25.051285 121.521701,25.051286 121.521681,25.051286 121.521687,25.051470"/>
    <poly id="1005484550" type="building" color="255,230,230" fill="1" layer="-1.00" geo="1" shape="121.521750,25.051469 121.521845,25.051467 121.521846,25.051283 121.521771,25.051284 121.521742,25.051285 121.521750,25.051469"/>
    <poly id="1005484551" type="building" color="255,230,230" fill="1" layer="-1.00" geo="1" shape="121.521845,25.051467 121.521846,25.051283 121.521866,25.051278 121.522040,25.051238 121.522109,25.051415 121.521939,25.051466 121.521845,25.051467"/>
    <poly id="1005484553" type="building" color="255,230,230" fill="1" layer="-1.00" geo="1" shape="121.521462,25.051348 121.521617,25.051349 121.521614,25.051289 121.521463,25.051288 121.521462,25.051348"/>
    <poly id="1005484554" type="building" color="255,230,230" fill="1" layer="-1.00" geo="1" shape="121.521614,25.051289 121.521612,25.051184 121.521562,25.051184 121.521464,25.051183 121.521463,25.051288 121.521614,25.051289"/>
    <poly id="1005484555" type="building" color="255,230,230" fill="1" layer="-1.00" geo="1" shape="121.521464,25.051183 121.521562,25.051184 121.521612,25.051184 121.521615,25.051126 121.521546,25.051126 121.521465,25.051127 121.521464,25.051183"/>
    <poly id="1005484556" type="building" color="255,230,230" fill="1" layer="-1.00" geo="1" shape="121.521465,25.051127 121.521546,25.051126 121.521547,25.051026 121.521467,25.051030 121.521465,25.051127"/>
    <poly id="1005484557" type="building" color="255,230,230" fill="1" layer="-1.00" geo="1" shape="121.521546,25.051126 121.521615,25.051126 121.521610,25.051024 121.521547,25.051026 121.521546,25.051126"/>
    <poly id="1005484558" type="building" color="255,230,230" fill="1" layer="-1.00" geo="1" shape="121.521615,25.051126 121.521660,25.051126 121.521660,25.051021 121.521610,25.051024 121.521615,25.051126"/>
    <poly id="1005484559" type="building" color="255,230,230" fill="1" layer="-1.00" geo="1" shape="121.521686,25.051127 121.521733,25.051126 121.521730,25.051016 121.521687,25.051019 121.521686,25.051127"/>
    <poly id="1005484560" type="building" color="255,230,230" fill="1" layer="-1.00" geo="1" shape="121.521733,25.051126 121.521797,25.051123 121.521793,25.051013 121.521730,25.051016 121.521733,25.051126"/>
    <poly id="1005484561" type="building" color="255,230,230" fill="1" layer="-1.00" geo="1" shape="121.521797,25.051123 121.521838,25.051121 121.521872,25.051084 121.521855,25.051009 121.521793,25.051013 121.521797,25.051123"/>
    <poly id="1005484562" type="building" color="255,230,230" fill="1" layer="-1.00" geo="1" shape="121.521872,25.051084 121.521947,25.051063 121.521937,25.051004 121.521855,25.051009 121.521872,25.051084"/>
    <poly id="1005484563" type="building" color="255,230,230" fill="1" layer="-1.00" geo="1" shape="121.522040,25.051238 121.521965,25.051108 121.521871,25.051135 121.521858,25.051176 121.521872,25.051218 121.521852,25.051232 121.521866,25.051278 121.522040,25.051238"/>
    <poly id="1005484564" type="building" color="255,230,230" fill="1" layer="-1.00" geo="1" shape="121.521871,25.051135 121.521965,25.051108 121.521947,25.051063 121.521872,25.051084 121.521871,25.051135"/>
    <poly id="1005501986" type="building" color="255,230,230" fill="1" layer="-1.00" geo="1" shape="121.520478,25.049841 121.520412,25.049855 121.520454,25.050008 121.520483,25.050024 121.520524,25.050014 121.520478,25.049841"/>
    <poly id="1005501987" type="building" color="255,230,230" fill="1" layer="-1.00" geo="1" shape="121.520600,25.049996 121.520648,25.049985 121.520672,25.049953 121.520632,25.049806 121.520551,25.049825 121.520600,25.049996"/>
    <poly id="1005501988" type="building" color="255,230,230" fill="1" layer="-1.00" geo="1" shape="121.520720,25.049945 121.520752,25.049963 121.520818,25.049944 121.520781,25.049819 121.520811,25.049812 121.520816,25.049800 121.520805,25.049760 121.520720,25.049781 121.520715,25.049793 121.520682,25.049801 121.520720,25.049945"/>
    <poly id="1005501989" type="building" color="255,230,230" fill="1" layer="-1.00" geo="1" shape="121.520851,25.049936 121.521112,25.049877 121.521088,25.049790 121.521048,25.049799 121.521038,25.049764 121.521080,25.049754 121.521058,25.049673 121.520975,25.049661 121.520960,25.049647 121.520961,25.049637 121.520944,25.049628 121.520934,25.049626 121.520918,25.049616 121.520896,25.049610 121.520865,25.049614 121.520819,25.049619 121.520846,25.049715 121.520849,25.049740 121.520831,25.049771 121.520842,25.049808 121.520863,25.049803 121.520873,25.049839 121.520827,25.049849 121.520851,25.049936"/>
    <poly id="1005501990" type="building" color="255,230,230" fill="1" layer="-1.00" geo="1" shape="121.521182,25.049862 121.521273,25.049840 121.521236,25.049712 121.521193,25.049717 121.521136,25.049698 121.521182,25.049862"/>
    <poly id="1005879800" type="parking" color="184,184,179" fill="1" layer="-1.00" geo="1" shape="121.544898,25.038593 121.545139,25.038592 121.545143,25.038434 121.544894,25.038441 121.544898,25.038593"/>
    <poly id="1007391241" type="building" color="255,230,230" fill="1" layer="-1.00" geo="1" shape="121.520232,25.051385 121.520269,25.051382 121.520262,25.051302 121.520231,25.051303 121.520232,25.051385"/>
    <poly id="1008720559" type="building" color="255,230,230" fill="1" layer="-1.00" geo="1" shape="121.547379,25.039829 121.547699,25.039824 121.547701,25.039956 121.547575,25.039958 121.547577,25.040073 121.547393,25.040076 121.547392,25.039995 121.547449,25.039994 121.547449,25.039962 121.547382,25.039963 121.547379,25.039829"/>
    <poly id="1008720562" type="building" color="255,230,230" fill="1" layer="-1.00" geo="1" shape="121.542385,25.040895 121.542385,25.040858 121.542404,25.040858 121.542403,25.040806 121.542386,25.040806 121.542386,25.040791 121.542394,25.040791 121.542394,25.040754 121.542382,25.040754 121.542381,25.040713 121.542288,25.040714 121.542289,25.040756 121.542277,25.040756 121.542278,25.040793 121.542290,25.040793 121.542290,25.040811 121.542274,25.040811 121.542275,25.040861 121.542292,25.040861 121.542292,25.040896 121.542385,25.040895"/>
    <poly id="1008720563" type="residential" color="235,235,227" fill="1" layer="-3.00" geo="1" shape="121.541391,25.041094 121.542425,25.041076 121.542415,25.040638 121.543017,25.040628 121.543009,25.040268 121.542771,25.040272 121.542767,25.040073 121.542217,25.040083 121.542221,25.040283 121.541945,25.040288 121.541944,25.040264 121.541373,25.040274 121.541391,25.041094"/>
    <poly id="1008720564" type="building" color="255,230,230" fill="1" layer="-1.00" geo="1" shape="121.546160,25.039563 121.546282,25.039561 121.546279,25.039420 121.546157,25.039422 121.546160,25.039563"/>
    <poly id="1008720565" type="building" color="255,230,230" fill="1" layer="-1.00" geo="1" shape="121.546648,25.039559 121.546647,25.039443 121.546468,25.039444 121.546468,25.039560 121.546648,25.039559"/>
    <poly id="1008720566" type="building" color="255,230,230" fill="1" layer="-1.00" geo="1" shape="121.546958,25.039546 121.547084,25.039542 121.547080,25.039417 121.546954,25.039420 121.546958,25.039546"/>
    <poly id="1008720567" type="building" color="255,230,230" fill="1" layer="-1.00" geo="1" shape="121.546861,25.039582 121.546865,25.039695 121.547076,25.039689 121.547072,25.039576 121.546861,25.039582"/>
    <poly id="1008720568" type="building" color="255,230,230" fill="1" layer="-1.00" geo="1" shape="121.546653,25.039701 121.546865,25.039695 121.546861,25.039582 121.546649,25.039588 121.546653,25.039701"/>
    <poly id="1008720569" type="building" color="255,230,230" fill="1" layer="-1.00" geo="1" shape="121.546441,25.039597 121.546444,25.039710 121.546622,25.039706 121.546619,25.039594 121.546441,25.039597"/>
    <poly id="1010524658" type="building" color="255,230,230" fill="1" layer="-1.00" geo="1" shape="121.534064,25.048347 121.534190,25.048345 121.534187,25.048135 121.534082,25.048136 121.534083,25.048173 121.534061,25.048174 121.534064,25.048347"/>
    <poly id="1010524659" type="building" color="255,230,230" fill="1" layer="-1.00" geo="1" shape="121.533865,25.048350 121.534061,25.048348 121.534059,25.048162 121.533863,25.048164 121.533865,25.048350"/>