<additional>
    <tlLogic id="joinedS_3086736518_4510431305_655375232_655375233_#5more" type="static" programID="integrated_0" offset="0">
        <param key="tls.ignore-internal-junction-jam" value="true"/>
        <phase duration="99" state="gggggggggggggrggggggggggggrgggggggggg"/>
        <phase duration="4" state="yyyyyyyyyyyyyryyyyyyyyyyyyryyyyyyyyyy"/>
        <phase duration="4" state="rrrrrrrrrrrrrrrrrrrrrrrrrrrrrrrrrrrrr"/>
        <phase duration="68" state="rrrrrrrrrrrrrgrrrrrrrrrrrrgrrrrrrrrrr"/>
        <phase duration="3" state="rrrrrrrrrrrrryrrrrrrrrrrrryrrrrrrrrrr"/>
        <phase duration="5" state="rrrrrrrrrrrrrrrrrrrrrrrrrrrrrrrrrrrrr"/>
        <phase duration="12" state="rrrrrrrrrrrrrrrrrrrrrrrrrrrrrrrrrrrrr"/>
        <phase duration="3" state="rrrrrrrrrrrrrrrrrrrrrrrrrrrrrrrrrrrrr"/>
        <phase duration="5" state="rrrrrrrrrrrrrrrrrrrrrrrrrrrrrrrrrrrrr"/>
        <phase duration="3" state="rrrrrrrrrrrrrrrrrrrrrrrrrrrrrrrrrrrrr"/>
    </tlLogic>
    <tlLogic id="joinedS_4777363344_622618015_622618144_622618197_#2more" type="static" programID="integrated_0" offset="0">
        <param key="tls.ignore-internal-junction-jam" value="true"/>
        <phase duration="94" state="ggrgggrrrrrggrggrr"/>
        <phase duration="4" state="yyryyyrrrrryyryyrr"/>
        <phase duration="2" state="rrrrrrrrrrrrrrrrrr"/>
        <phase duration="50" state="rrgrrrggrggrrrrrgg"/>
        <phase duration="3" state="rryrrryyryyrrrrryy"/>
        <phase duration="4" state="rrrrrrrrrrrrrrrrrr"/>
        <phase duration="17" state="rrrrrrrrgrrrrrrrrr"/>
        <phase duration="4" state="rrrrrrrryrrrrrrrrr"/>
        <phase duration="2" state="rrrrrrrrrrrrrrrrrr"/>
        <phase duration="5" state="rrrrrrrrrrrrrgrrrr"/>
        <phase duration="3" state="rrrrrrrrrrrrryrrrr"/>
        <phase duration="5" state="rrrrrrrrrrrrrrrrrr"/>
        <phase duration="3" state="rrrrrrrrrrrrrrrrrr"/>
        <phase duration="4" state="rrrrrrrrrrrrrrrrrr"/>
        <phase duration="4" state="rrrrrrrrrrrrrrrrrr"/>
        <phase duration="2" state="rrrrrrrrrrrrrrrrrr"/>
    </tlLogic>
    <tlLogic id="joinedS_4868177053_4868177068_655375228_655375239_#1more" type="static" programID="integrated_0" offset="0">
        <param key="tls.ignore-internal-junction-jam" value="true"/>
        <phase duration="72" state="gggggggggggrrrggggrrrrrgggg"/>
        <phase duration="3" state="yyyyyyyyyyyrrryyyyrrrrryyyy"/>
        <phase duration="2" state="rrrrrrrrrrrrrrrrrrrrrrrrrrr"/>
        <phase duration="60" state="rrrrrrrrrrrggrrrrrggggrrrrr"/>
        <phase duration="3" state="rrrrrrrrrrryyrrrrryyyyrrrrr"/>
        <phase duration="2" state="rrrrrrrrrrrrrrrrrrrrrrrrrrr"/>
        <phase duration="8" state="rrrrrrrrrrrrrgrrrrrrrrgrrrr"/>
        <phase duration="3" state="rrrrrrrrrrrrryrrrrrrrryrrrr"/>
    </tlLogic>
    <tlLogic id="joinedS_622618112_622618230_7723489785_7723489786" type="static" programID="integrated_0" offset="0">
        <param key="tls.ignore-internal-junction-jam" value="true"/>
        <phase duration="94" state="ggrrrgggrrrrgg"/>
        <phase duration="4" state="yyrrryyyrrrryy"/>
        <phase duration="2" state="rrrrrrrrrrrrrr"/>
        <phase duration="50" state="rrrggrrrggrgrr"/>
        <phase duration="3" state="rrryyrrryyryrr"/>
        <phase duration="4" state="rrrrrrrrrrrrrr"/>
        <phase duration="17" state="rrgrrrrrrrrrrr"/>
        <phase duration="4" state="rryrrrrrrrrrrr"/>
        <phase duration="2" state="rrrrrrrrrrrrrr"/>
        <phase duration="5" state="rrrrrrrrrrgrrr"/>
        <phase duration="3" state="rrrrrrrrrryrrr"/>
        <phase duration="5" state="rrrrrrrrrrrrrr"/>
        <phase duration="3" state="rrrrrrrrrrrrrr"/>
        <phase duration="4" state="rrrrrrrrrrrrrr"/>
        <phase duration="4" state="rrrrrrrrrrrrrr"/>
        <phase duration="2" state="rrrrrrrrrrrrrr"/>
    </tlLogic>
    <tlLogic id="joinedS_623980147_623980152_6982059029_6982059030" type="static" programID="integrated_0" offset="0">
        <param key="tls.ignore-internal-junction-jam" value="true"/>
        <phase duration="90" state="rrrggggggggrrrrgggggg"/>
        <phase duration="3" state="rrryyyyyyyyrrrryyyyyy"/>
        <phase duration="2" state="rrrrrrrrrrrrrrrrrrrrr"/>
        <phase duration="86" state="gggrrrrrrrrggrrrrrrrr"/>
        <phase duration="3" state="yyyrrrrrrrryyrrrrrrrr"/>
        <phase duration="4" state="rrrrrrrrrrrrrrrrrrrrr"/>
        <phase duration="6" state="rrrrrrrrrrrrrggrrrrrr"/>
        <phase duration="3" state="rrrrrrrrrrrrryyrrrrrr"/>
        <phase duration="3" state="rrrrrrrrrrrrrrrrrrrrr"/>
    </tlLogic>
    <tlLogic id="joinedS_655375241_655375242" type="static" programID="integrated_0" offset="0">
        <param key="tls.ignore-internal-junction-jam" value="true"/>
        <phase duration="80" state="gggggrrrggggg"/>
        <phase duration="3" state="yyyyyrrryyyyy"/>
        <phase duration="2" state="rrrrrrrrrrrrr"/>
        <phase duration="45" state="rrrrrgrgrrrrr"/>
        <phase duration="3" state="rrrrryryrrrrr"/>
        <phase duration="2" state="rrrrrrrrrrrrr"/>
        <phase duration="10" state="rrrrrrgrrrrrr"/>
        <phase duration="3" state="rrrrrryrrrrrr"/>
        <phase duration="2" state="rrrrrrrrrrrrr"/>
    </tlLogic>
</additional>